
     RDKit          3D

 12 12  0  0  0  0  0  0  0  0999 V2000
   63.6400   40.7070   30.7160 S   0  0  0  0  0  0  0  0  0  0  0  0
   65.9680   41.3580   31.9940 C   0  0  0  0  0  0  0  0  0  0  0  0
   67.9210   40.6420   33.6420 C   0  0  0  0  0  0  0  0  0  0  0  0
   65.3230   40.6700   30.8710 C   0  0  0  0  0  0  0  0  0  0  0  0
   68.1320   37.3830   31.9950 O   0  0  0  0  0  0  0  0  0  0  0  0
   68.0510   41.9710   34.3340 C   0  0  0  0  0  0  0  0  0  0  0  0
   67.1160   39.2690   31.7690 C   0  0  0  0  0  0  0  0  0  0  0  0
   66.9290   38.0960   32.7140 C   0  0  0  0  0  0  0  0  0  0  0  0
   62.8570   41.9340   31.5920 C   0  0  0  0  0  0  0  0  0  0  0  0
   67.3690   40.7290   32.2230 C   0  0  0  0  0  0  0  0  0  0  0  0
   67.4610   37.7880   33.9410 C   0  0  0  0  0  0  0  0  0  0  0  0
   66.0420   39.3030   30.7020 C   0  0  0  0  0  0  0  0  0  0  0  0
  1  9  1  0
  2 10  1  0
  3  6  1  0
  4  1  1  0
  4  2  1  0
  5  8  1  0
  7 10  1  0
  7  8  1  0
  8 11  1  0
 10  3  1  0
 12  4  1  0
 12  7  1  0
M  END
$$$$

     RDKit          3D

 13 14  0  0  0  0  0  0  0  0999 V2000
   59.0840   41.3820   32.1860 C   0  0  0  0  0  0  0  0  0  0  0  0
   63.8250   42.6400   34.2030 C   0  0  0  0  0  0  0  0  0  0  0  0
   58.3660   42.6770   32.1880 C   0  0  0  0  0  0  0  0  0  0  0  0
   62.8930   44.3310   35.6260 C   0  0  0  0  0  0  0  0  0  0  0  0
   62.6210   43.3090   34.7300 C   0  0  0  0  0  0  0  0  0  0  0  0
   61.5530   42.0700   34.7170 C   0  0  0  0  0  0  0  0  0  0  0  0
   60.3250   42.2000   34.0300 C   0  0  0  0  0  0  0  0  0  0  0  0
   65.0630   42.7470   34.7690 C   0  0  0  0  0  0  0  0  0  0  0  0
   60.0910   43.5600   33.3730 C   0  0  0  0  0  0  0  0  0  0  0  0
   64.1250   44.2810   36.3460 C   0  0  0  0  0  0  0  0  0  0  0  0
   65.2690   43.5950   35.8580 C   0  0  0  0  0  0  0  0  0  0  0  0
   59.5530   41.3390   33.5800 C   0  0  0  0  0  0  0  0  0  0  0  0
   58.9920   43.7290   32.5200 C   0  0  0  0  0  0  0  0  0  0  0  0
  1  3  1  0
  1 12  1  0
  2  5  2  0
  2  8  1  0
  3 13  1  0
  4 10  2  0
  5  4  1  0
  6  5  1  0
  7  6  1  0
  8 11  2  0
  9  7  2  0
 11 10  1  0
 12  7  1  0
 13  9  1  0
M  END
$$$$

     RDKit          3D

 25 28  0  0  0  0  0  0  0  0999 V2000
   65.2760   43.3290   40.6490 C   0  0  0  0  0  0  0  0  0  0  0  0
   64.9280   41.9750   36.7710 C   0  0  0  0  0  0  0  0  0  0  0  0
   62.8780   43.1880   37.5530 O   0  0  0  0  0  0  0  0  0  0  0  0
   64.2640   44.0850   39.8590 N   0  0  0  0  0  0  0  0  0  0  0  0
   64.2580   42.9780   37.4170 C   0  0  0  0  0  0  0  0  0  0  0  0
   64.0310   42.1720   34.7800 C   0  0  0  0  0  0  0  0  0  0  0  0
   64.5870   41.5530   32.4670 C   0  0  0  0  0  0  0  0  0  0  0  0
   65.5260   41.9020   28.2380 C   0  0  0  0  0  0  0  0  0  0  0  0
   66.1760   41.7320   35.9380 C   0  0  0  0  0  0  0  0  0  0  0  0
   61.3630   43.8580   30.8840 C   0  0  0  0  0  0  0  0  0  0  0  0
   64.8260   41.7290   33.8290 C   0  0  0  0  0  0  0  0  0  0  0  0
   63.1690   42.7390   29.5470 C   0  0  0  0  0  0  0  0  0  0  0  0
   60.7020   42.0730   29.7120 N   0  0  0  0  0  0  0  0  0  0  0  0
   65.8080   42.8010   39.2820 C   0  0  0  0  0  0  0  0  0  0  0  0
   64.6020   43.4740   38.7930 N   0  0  0  0  0  0  0  0  0  0  0  0
   66.7820   40.8440   31.1670 C   0  0  0  0  0  0  0  0  0  0  0  0
   64.4330   40.8790   30.1620 N   0  0  0  0  0  0  0  0  0  0  0  0
   66.1060   41.8800   34.5160 C   0  0  0  0  0  0  0  0  0  0  0  0
   64.0330   41.5250   29.0180 C   0  0  0  0  0  0  0  0  0  0  0  0
   65.2920   41.2450   31.2050 C   0  0  0  0  0  0  0  0  0  0  0  0
   64.4360   42.6830   35.9910 N   0  0  0  0  0  0  0  0  0  0  0  0
   61.7470   42.5770   30.0140 C   0  0  0  0  0  0  0  0  0  0  0  0
   67.3200   41.6140   33.6450 C   0  0  0  0  0  0  0  0  0  0  0  0
   67.6530   41.0290   32.4110 C   0  0  0  0  0  0  0  0  0  0  0  0
   59.5650   41.1480   29.7360 C   0  0  0  0  0  0  0  0  0  0  0  0
  2  9  1  0
  2  5  1  0
  4  1  1  0
  5  3  1  0
  5 15  1  0
 11  7  1  0
 11 18  1  0
 11  6  1  0
 12 22  1  0
 13 25  3  0
 13 22  1  0
 14  1  1  0
 15 14  1  0
 15  4  1  0
 16 20  1  0
 16 24  2  0
 17 20  1  0
 18  9  1  0
 19  8  1  0
 19 12  1  0
 19 17  1  0
 20  7  2  0
 21  6  1  0
 21  2  1  0
 21  5  1  0
 22 10  1  0
 23 18  2  0
 24 23  1  0
M  END
$$$$

     RDKit          3D

 11 10  0  0  0  0  0  0  0  0999 V2000
   62.3630   41.1690   34.5550 O   0  0  0  0  0  0  0  0  0  0  0  0
   60.7960   43.2780   33.7180 C   0  0  0  0  0  0  0  0  0  0  0  0
   62.3140   43.3360   33.5520 C   0  0  0  0  0  0  0  0  0  0  0  0
   60.3260   44.1940   34.4700 O   0  0  0  0  0  0  0  0  0  0  0  0
   65.0550   42.3710   32.4320 C   0  0  0  0  0  0  0  0  0  0  0  0
   65.0860   40.9280   32.1400 O   0  0  0  0  0  0  0  0  0  0  0  0
   65.2910   43.6730   33.6080 N   0  0  0  0  0  0  0  0  0  0  0  0
   60.0880   42.4170   33.1420 O   0  0  0  0  0  0  0  0  0  0  0  0
   62.8740   42.4640   34.6700 C   0  0  0  0  0  0  0  0  0  0  0  0
   62.6570   43.1630   32.2600 C   0  0  0  0  0  0  0  0  0  0  0  0
   63.9630   43.0630   31.5960 C   0  0  0  0  0  0  0  0  0  0  0  0
  1  9  1  0
  2  4  1  0
  3 10  1  0
  3  2  1  0
  3  9  1  0
  5  7  1  0
  6  5  2  0
  8  2  2  0
 11 10  1  0
 11  5  1  0
M  END
$$$$

     RDKit          3D

 11 10  0  0  0  0  0  0  0  0999 V2000
   66.2500   41.0410   33.2170 N   0  0  0  0  0  0  0  0  0  0  0  0
   63.2810   41.8180   38.6160 C   0  0  0  0  0  0  0  0  0  0  0  0
   65.4370   40.2900   32.2210 C   0  0  0  0  0  0  0  0  0  0  0  0
   61.8290   42.6330   38.4730 C   0  0  0  0  0  0  0  0  0  0  0  0
   61.7290   43.0690   39.9000 O   0  0  0  0  0  0  0  0  0  0  0  0
   65.4460   41.5780   37.2440 C   0  0  0  0  0  0  0  0  0  0  0  0
   65.2640   41.6550   34.2590 C   0  0  0  0  0  0  0  0  0  0  0  0
   66.0770   39.7000   30.9710 C   0  0  0  0  0  0  0  0  0  0  0  0
   65.9520   41.2880   35.7320 C   0  0  0  0  0  0  0  0  0  0  0  0
   67.5140   39.6620   31.0230 N   0  0  0  0  0  0  0  0  0  0  0  0
   63.8860   41.7850   37.2070 C   0  0  0  0  0  0  0  0  0  0  0  0
  1  7  1  0
  3  1  1  0
  4  2  1  0
  4  5  1  0
  7  9  1  0
  8 10  1  0
  8  3  1  0
  9  6  1  0
 11  6  1  0
 11  2  1  0
M  END
$$$$

     RDKit          3D

 12 12  0  0  0  0  0  0  0  0999 V2000
   64.1160   42.3310   33.9560 C   0  0  0  0  0  0  0  0  0  0  0  0
   64.7060   40.7380   31.6400 C   0  0  0  0  0  0  0  0  0  0  0  0
   62.5030   43.3090   35.7180 O   0  0  0  0  0  0  0  0  0  0  0  0
   63.4670   41.0150   33.8440 C   0  0  0  0  0  0  0  0  0  0  0  0
   64.6260   42.8960   32.9090 C   0  0  0  0  0  0  0  0  0  0  0  0
   63.6670   42.7270   29.7830 Br  0  0  0  0  0  0  0  0  0  0  0  0
   64.6690   44.3550   35.6890 O   0  0  0  0  0  0  0  0  0  0  0  0
   64.7990   42.1530   31.6320 C   0  0  0  0  0  0  0  0  0  0  0  0
   64.2000   43.0040   35.7040 S   0  0  0  0  0  0  0  0  0  0  0  0
   64.6090   42.0300   36.6210 O   0  0  0  0  0  0  0  0  0  0  0  0
   64.2690   40.1330   32.8730 C   0  0  0  0  0  0  0  0  0  0  0  0
   63.5850   38.8660   32.9620 O   0  0  0  0  0  0  0  0  0  0  0  0
  1  9  1  0
  2 11  1  0
  4  1  1  0
  5  1  2  0
  7  9  1  0
  8  6  1  0
  8  2  1  0
  8  5  1  0
  9  3  1  0
  9 10  1  0
 11 12  1  0
 11  4  1  0
M  END
$$$$

     RDKit          3D

  8  7  0  0  0  0  0  0  0  0999 V2000
   65.0970   46.2010   31.3900 N   0  0  0  0  0  0  0  0  0  0  0  0
   69.5780   42.7380   33.0110 C   0  0  0  0  0  0  0  0  0  0  0  0
   69.5530   43.5490   33.2650 O   0  0  0  0  0  0  0  0  0  0  0  0
   68.6140   44.6200   33.4630 C   0  0  0  0  0  0  0  0  0  0  0  0
   66.2230   46.5140   33.3560 O   0  0  0  0  0  0  0  0  0  0  0  0
   66.4870   45.4880   32.8640 C   0  0  0  0  0  0  0  0  0  0  0  0
   65.9710   45.4940   31.7350 C   0  0  0  0  0  0  0  0  0  0  0  0
   67.3270   44.3000   32.9020 C   0  0  0  0  0  0  0  0  0  0  0  0
  1  7  2  0
  2  3  1  0
  3  4  1  0
  6  8  1  0
  6  5  2  0
  7  6  1  0
  8  4  1  0
M  END
$$$$

     RDKit          3D

 11 10  0  0  0  0  0  0  0  0999 V2000
   64.8750   43.9990   33.7070 C   0  0  0  0  0  0  0  0  0  0  0  0
   65.7370   39.2710   30.5980 C   0  0  0  0  0  0  0  0  0  0  0  0
   66.7080   40.0840   32.5330 C   0  0  0  0  0  0  0  0  0  0  0  0
   64.9090   42.8090   34.5850 C   0  0  0  0  0  0  0  0  0  0  0  0
   63.5830   42.8110   35.1580 O   0  0  0  0  0  0  0  0  0  0  0  0
   65.8730   42.1460   33.3820 C   0  0  0  0  0  0  0  0  0  0  0  0
   66.5690   39.9600   31.5770 C   0  0  0  0  0  0  0  0  0  0  0  0
   62.4740   44.6120   33.2840 C   0  0  0  0  0  0  0  0  0  0  0  0
   67.4350   40.7270   30.9860 O   0  0  0  0  0  0  0  0  0  0  0  0
   63.9330   45.3440   34.2480 S   0  0  0  0  0  0  0  0  0  0  0  0
   65.9950   40.7950   33.8130 C   0  0  0  0  0  0  0  0  0  0  0  0
  1 10  1  0
  1  4  1  0
  3 11  1  0
  4  5  1  0
  6 11  1  0
  6  4  1  0
  7  2  1  0
  7  3  1  0
  8 10  1  0
  9  7  1  0
M  END
$$$$

     RDKit          3D

 18 20  0  0  0  0  0  0  0  0999 V2000
   63.4350   43.7010   36.9570 C   0  0  0  0  0  0  0  0  0  0  0  0
   62.6730   42.5840   37.3760 C   0  0  0  0  0  0  0  0  0  0  0  0
   66.2580   40.5990   32.2530 C   0  0  0  0  0  0  0  0  0  0  0  0
   63.8350   44.1600   38.4640 O   0  0  0  0  0  0  0  0  0  0  0  0
   63.9000   42.6200   34.8090 C   0  0  0  0  0  0  0  0  0  0  0  0
   65.4460   41.1440   33.2830 N   0  0  0  0  0  0  0  0  0  0  0  0
   64.7000   42.1440   33.5930 C   0  0  0  0  0  0  0  0  0  0  0  0
   66.9380   39.3420   32.2980 C   0  0  0  0  0  0  0  0  0  0  0  0
   69.4190   37.8880   32.7480 C   0  0  0  0  0  0  0  0  0  0  0  0
   66.3360   40.8690   29.7590 C   0  0  0  0  0  0  0  0  0  0  0  0
   65.9550   41.1200   30.9570 C   0  0  0  0  0  0  0  0  0  0  0  0
   63.9100   43.9500   35.8100 C   0  0  0  0  0  0  0  0  0  0  0  0
   63.9660   42.9030   38.0130 C   0  0  0  0  0  0  0  0  0  0  0  0
   68.2380   39.4250   30.2440 N   0  0  0  0  0  0  0  0  0  0  0  0
   68.9010   39.1210   32.5830 O   0  0  0  0  0  0  0  0  0  0  0  0
   67.5720   40.2470   29.2650 C   0  0  0  0  0  0  0  0  0  0  0  0
   62.6440   42.8340   34.3420 O   0  0  0  0  0  0  0  0  0  0  0  0
   68.2500   39.8420   31.6530 C   0  0  0  0  0  0  0  0  0  0  0  0
  1 12  1  0
  1  2  1  0
  1 13  1  0
  1  4  1  0
  3  8  1  0
  3  6  1  0
  5 17  1  0
  5 12  1  0
  6  7  2  3
  7  5  1  0
 10 11  1  0
 11  3  1  0
 13  2  1  0
 13  4  1  0
 14 18  1  0
 15  9  1  0
 16 10  1  0
 16 14  1  0
 18  8  1  0
 18 15  1  0
M  END
$$$$

     RDKit          3D

  9  9  0  0  0  0  0  0  0  0999 V2000
   62.9100   42.0230   33.2600 O   0  0  0  0  0  0  0  0  0  0  0  0
   63.6870   42.9810   30.2980 C   0  0  0  0  0  0  0  0  0  0  0  0
   65.1700   40.4440   29.9000 C   0  0  0  0  0  0  0  0  0  0  0  0
   61.2690   41.0770   32.0490 O   0  0  0  0  0  0  0  0  0  0  0  0
   64.9080   41.7780   28.5300 C   0  0  0  0  0  0  0  0  0  0  0  0
   64.5430   42.6920   29.1190 C   0  0  0  0  0  0  0  0  0  0  0  0
   64.2260   40.8480   30.8380 C   0  0  0  0  0  0  0  0  0  0  0  0
   62.3850   41.6890   32.1360 C   0  0  0  0  0  0  0  0  0  0  0  0
   63.2350   41.6770   30.8580 C   0  0  0  0  0  0  0  0  0  0  0  0
  2  9  1  0
  3  7  1  0
  4  8  2  0
  5  6  1  0
  5  3  1  0
  6  2  1  0
  7  9  1  0
  8  1  1  0
  9  8  1  0
M  END
$$$$

     RDKit          3D

 11 10  0  0  0  0  0  0  0  0999 V2000
   66.0200   46.4180   33.0530 O   0  0  0  0  0  0  0  0  0  0  0  0
   68.7910   42.7240   34.2690 C   0  0  0  0  0  0  0  0  0  0  0  0
   68.4610   41.5840   33.0670 C   0  0  0  0  0  0  0  0  0  0  0  0
   66.1800   44.6460   30.2970 O   0  0  0  0  0  0  0  0  0  0  0  0
   66.8400   44.2510   32.7740 N   0  0  0  0  0  0  0  0  0  0  0  0
   65.3720   45.2150   31.3080 C   0  0  0  0  0  0  0  0  0  0  0  0
   65.6540   45.1160   32.6130 C   0  0  0  0  0  0  0  0  0  0  0  0
   67.9050   41.9420   34.3830 C   0  0  0  0  0  0  0  0  0  0  0  0
   66.3900   42.8130   32.5720 C   0  0  0  0  0  0  0  0  0  0  0  0
   67.6170   42.0840   32.1350 C   0  0  0  0  0  0  0  0  0  0  0  0
   64.5390   45.9950   31.0820 O   0  0  0  0  0  0  0  0  0  0  0  0
  2  8  1  0
  3  8  1  0
  4  6  2  0
  6  7  1  0
  7  5  1  0
  7  1  1  0
  9  5  1  0
 10  9  1  0
 10  3  1  0
 11  6  1  0
M  END
$$$$

     RDKit          3D

 24 24  0  0  0  0  0  0  0  0999 V2000
   64.5470   37.1740   29.4240 C   0  0  0  0  0  0  0  0  0  0  0  0
   67.7300   43.3780   35.6580 C   0  0  0  0  0  0  0  0  0  0  0  0
   68.1150   40.5200   33.5180 C   0  0  0  0  0  0  0  0  0  0  0  0
   63.6820   37.4020   28.3190 N   0  0  0  0  0  0  0  0  0  0  0  0
   64.4440   43.7180   37.5160 C   0  0  0  0  0  0  0  0  0  0  0  0
   64.1660   40.3250   31.1340 C   0  0  0  0  0  0  0  0  0  0  0  0
   63.0770   44.9870   38.3100 N   0  0  0  0  0  0  0  0  0  0  0  0
   64.4310   44.7580   38.5650 C   0  0  0  0  0  0  0  0  0  0  0  0
   68.8190   42.7260   36.3800 N   0  0  0  0  0  0  0  0  0  0  0  0
   67.2170   44.7680   37.6220 C   0  0  0  0  0  0  0  0  0  0  0  0
   66.1900   42.6300   33.9610 O   0  0  0  0  0  0  0  0  0  0  0  0
   66.1130   38.7680   31.5360 C   0  0  0  0  0  0  0  0  0  0  0  0
   64.7840   38.7550   31.1650 C   0  0  0  0  0  0  0  0  0  0  0  0
   62.8600   45.8870   37.1670 C   0  0  0  0  0  0  0  0  0  0  0  0
   67.2300   39.9800   33.0490 C   0  0  0  0  0  0  0  0  0  0  0  0
   67.2090   42.4000   34.6770 C   0  0  0  0  0  0  0  0  0  0  0  0
   65.2630   43.7860   36.2940 C   0  0  0  0  0  0  0  0  0  0  0  0
   61.9440   44.4470   38.8250 C   0  0  0  0  0  0  0  0  0  0  0  0
   65.8760   40.0520   32.4760 O   0  0  0  0  0  0  0  0  0  0  0  0
   68.2840   41.6200   34.2090 N   0  0  0  0  0  0  0  0  0  0  0  0
   64.1400   38.2430   30.2340 C   0  0  0  0  0  0  0  0  0  0  0  0
   63.3870   38.2740   29.0430 C   0  0  0  0  0  0  0  0  0  0  0  0
   63.9090   36.2430   27.4230 C   0  0  0  0  0  0  0  0  0  0  0  0
   66.7170   43.9320   36.5890 C   0  0  0  0  0  0  0  0  0  0  0  0
  1 21  1  0
  2  9  1  0
  2 24  1  0
  3 20  2  3
  4 22  1  0
  4  1  1  0
  5  8  1  0
  7  8  1  0
  7 18  1  0
 11 16  2  0
 12 19  1  0
 13  6  1  0
 13 12  1  0
 14  7  1  0
 15  3  1  0
 16  2  1  0
 17 24  1  0
 17  5  1  0
 19 15  1  0
 20 16  1  0
 21 13  1  0
 22 21  1  0
 23  4  1  0
 24 10  1  0
M  END
$$$$

     RDKit          3D

  4  3  0  0  0  0  0  0  0  0999 V2000
   64.1800   44.4420   26.7600 C   0  0  0  0  0  0  0  0  0  0  0  0
   64.3940   45.9600   28.5800 O   0  0  0  0  0  0  0  0  0  0  0  0
   64.5300   44.6400   28.3470 C   0  0  0  0  0  0  0  0  0  0  0  0
   64.4630   43.7520   29.0060 O   0  0  0  0  0  0  0  0  0  0  0  0
  1  3  1  0
  3  2  2  0
  3  4  1  0
M  END
$$$$

     RDKit          3D

 23 23  0  0  0  0  0  0  0  0999 V2000
   67.5110   42.7050   38.7510 C   0  0  0  0  0  0  0  0  0  0  0  0
   62.7050   43.5070   31.2520 O   0  0  0  0  0  0  0  0  0  0  0  0
   62.2980   42.5270   33.4260 C   0  0  0  0  0  0  0  0  0  0  0  0
   64.8730   40.8970   28.9850 N   0  0  0  0  0  0  0  0  0  0  0  0
   65.6580   42.1510   36.8740 S   0  0  0  0  0  0  0  0  0  0  0  0
   63.8960   41.8580   29.2200 C   0  0  0  0  0  0  0  0  0  0  0  0
   63.6170   43.8360   37.8010 C   0  0  0  0  0  0  0  0  0  0  0  0
   67.1050   39.5230   29.2460 N   0  0  0  0  0  0  0  0  0  0  0  0
   62.8850   42.4860   31.9960 C   0  0  0  0  0  0  0  0  0  0  0  0
   66.2040   39.5760   27.6030 C   0  0  0  0  0  0  0  0  0  0  0  0
   63.1840   43.2280   35.4940 C   0  0  0  0  0  0  0  0  0  0  0  0
   65.4620   43.6840   39.1850 C   0  0  0  0  0  0  0  0  0  0  0  0
   65.6120   40.9550   27.7550 C   0  0  0  0  0  0  0  0  0  0  0  0
   61.1340   42.6790   33.5080 O   0  0  0  0  0  0  0  0  0  0  0  0
   63.3640   42.5340   28.1660 O   0  0  0  0  0  0  0  0  0  0  0  0
   68.1460   44.0460   39.1710 C   0  0  0  0  0  0  0  0  0  0  0  0
   68.5280   41.6890   38.0010 C   0  0  0  0  0  0  0  0  0  0  0  0
   66.1210   42.8410   38.3900 C   0  0  0  0  0  0  0  0  0  0  0  0
   64.5270   44.0030   38.8650 C   0  0  0  0  0  0  0  0  0  0  0  0
   62.9430   41.1270   30.1270 C   0  0  0  0  0  0  0  0  0  0  0  0
   63.4290   41.5210   31.4090 N   0  0  0  0  0  0  0  0  0  0  0  0
   64.0910   43.1400   36.7110 C   0  0  0  0  0  0  0  0  0  0  0  0
   63.2100   42.5620   34.4130 N   0  0  0  0  0  0  0  0  0  0  0  0
  1 16  1  0
  2  9  2  0
  3 14  2  0
  3 23  1  0
  4  6  1  0
  5 18  1  0
  6 15  1  0
  6 20  1  0
  7 19  1  0
  9  3  1  0
 10 13  1  0
 10  8  1  0
 11 22  1  0
 13  4  1  0
 17  1  1  0
 18  1  1  0
 18 12  1  0
 19 12  2  0
 20 21  1  0
 21  9  1  0
 22  5  1  0
 22  7  2  0
 23 11  2  3
M  END
$$$$

     RDKit          3D

 14 13  0  0  0  0  0  0  0  0999 V2000
   67.3650   33.4370   30.7620 C   0  0  0  0  0  0  0  0  0  0  0  0
   69.6030   32.6400   29.6540 C   0  0  0  0  0  0  0  0  0  0  0  0
   66.9850   40.7680   32.8650 C   0  0  0  0  0  0  0  0  0  0  0  0
   68.7420   33.7280   30.2520 C   0  0  0  0  0  0  0  0  0  0  0  0
   68.7770   35.1080   29.5410 C   0  0  0  0  0  0  0  0  0  0  0  0
   66.8650   36.6610   30.4330 C   0  0  0  0  0  0  0  0  0  0  0  0
   64.0020   39.5080   30.9370 N   0  0  0  0  0  0  0  0  0  0  0  0
   64.7200   41.2700   33.1370 O   0  0  0  0  0  0  0  0  0  0  0  0
   67.9140   39.8320   32.1290 C   0  0  0  0  0  0  0  0  0  0  0  0
   67.2240   38.6500   31.6170 C   0  0  0  0  0  0  0  0  0  0  0  0
   65.5340   40.4450   32.5100 C   0  0  0  0  0  0  0  0  0  0  0  0
   68.2990   36.2870   30.3960 C   0  0  0  0  0  0  0  0  0  0  0  0
   65.0130   39.6120   31.6840 C   0  0  0  0  0  0  0  0  0  0  0  0
   66.4570   38.0920   30.8210 C   0  0  0  0  0  0  0  0  0  0  0  0
  2  4  1  0
  4  1  1  0
  5  4  1  0
  5 12  1  0
  6 14  1  0
  7 13  2  0
  9  3  1  0
 10  9  1  0
 11  3  1  0
 11  8  1  0
 12  6  1  0
 13 11  1  0
 14 10  1  0
M  END
$$$$

     RDKit          3D

 11 10  0  0  0  0  0  0  0  0999 V2000
   67.4920   38.6020   30.4250 C   0  0  0  0  0  0  0  0  0  0  0  0
   65.0550   42.2450   30.1200 O   0  0  0  0  0  0  0  0  0  0  0  0
   64.7440   41.2910   30.8190 C   0  0  0  0  0  0  0  0  0  0  0  0
   62.7660   42.1650   31.7480 C   0  0  0  0  0  0  0  0  0  0  0  0
   60.7210   43.6550   31.9590 C   0  0  0  0  0  0  0  0  0  0  0  0
   61.0660   41.7090   33.6190 C   0  0  0  0  0  0  0  0  0  0  0  0
   66.7080   39.7220   29.7020 C   0  0  0  0  0  0  0  0  0  0  0  0
   61.7060   42.7410   32.6960 C   0  0  0  0  0  0  0  0  0  0  0  0
   65.7520   40.0770   30.7820 C   0  0  0  0  0  0  0  0  0  0  0  0
   67.5900   39.5220   29.3330 O   0  0  0  0  0  0  0  0  0  0  0  0
   63.5590   41.1200   31.5740 C   0  0  0  0  0  0  0  0  0  0  0  0
  2  3  2  0
  3 11  1  0
  4  8  1  0
  5  8  1  0
  7  9  1  0
  8  6  1  0
  9  3  1  0
 10  7  1  0
 10  1  1  0
 11  4  1  0
M  END
$$$$

     RDKit          3D

  9  9  0  0  0  0  0  0  0  0999 V2000
   64.5720   48.0180   35.2240 C   0  0  0  0  0  0  0  0  0  0  0  0
   66.5210   46.3040   37.6710 O   0  0  0  0  0  0  0  0  0  0  0  0
   64.6780   46.9140   36.1700 C   0  0  0  0  0  0  0  0  0  0  0  0
   63.4660   45.9290   32.3780 N   0  0  0  0  0  0  0  0  0  0  0  0
   64.3410   45.8320   36.0200 C   0  0  0  0  0  0  0  0  0  0  0  0
   63.9420   45.5630   34.6600 C   0  0  0  0  0  0  0  0  0  0  0  0
   63.6570   46.6910   33.6380 C   0  0  0  0  0  0  0  0  0  0  0  0
   66.3980   47.1190   37.0990 C   0  0  0  0  0  0  0  0  0  0  0  0
   64.1560   47.7800   33.6730 O   0  0  0  0  0  0  0  0  0  0  0  0
  1  3  1  0
  3  8  1  0
  5  3  1  0
  6  5  1  0
  7  4  1  0
  7  9  1  0
  7  6  1  0
  8  2  1  0
  9  1  1  0
M  END
$$$$

     RDKit          3D

 11 10  0  0  0  0  0  0  0  0999 V2000
   59.1830   42.7390   31.7180 C   0  0  0  0  0  0  0  0  0  0  0  0
   65.2170   43.5050   34.6790 O   0  0  0  0  0  0  0  0  0  0  0  0
   61.8150   43.5380   32.2420 C   0  0  0  0  0  0  0  0  0  0  0  0
   66.3880   44.2450   35.1730 C   0  0  0  0  0  0  0  0  0  0  0  0
   60.5170   42.1950   32.6440 S   0  0  0  0  0  0  0  0  0  0  0  0
   64.1150   45.1370   33.6620 O   0  0  0  0  0  0  0  0  0  0  0  0
   61.0790   40.9800   31.4390 C   0  0  0  0  0  0  0  0  0  0  0  0
   63.2870   41.7610   33.2430 O   0  0  0  0  0  0  0  0  0  0  0  0
   61.3380   44.9490   32.5480 N   0  0  0  0  0  0  0  0  0  0  0  0
   62.9030   43.1290   33.2800 C   0  0  0  0  0  0  0  0  0  0  0  0
   64.1200   43.9360   33.7580 C   0  0  0  0  0  0  0  0  0  0  0  0
  1  5  1  0
  2  4  1  0
  3  9  1  0
  3  5  1  0
  3 10  1  0
  6 11  2  0
  7  5  1  0
 10  8  1  0
 10 11  1  0
 11  2  1  0
M  END
$$$$

     RDKit          3D

 11 11  0  0  0  0  0  0  0  0999 V2000
   67.5160   38.7650   35.4560 N   0  0  0  0  0  0  0  0  0  0  0  0
   67.6450   43.9660   36.9250 C   0  0  0  0  0  0  0  0  0  0  0  0
   68.6810   43.1240   36.5540 C   0  0  0  0  0  0  0  0  0  0  0  0
   70.1250   40.4480   37.9130 O   0  0  0  0  0  0  0  0  0  0  0  0
   68.5420   41.7750   36.7190 C   0  0  0  0  0  0  0  0  0  0  0  0
   66.2780   43.5900   36.6660 C   0  0  0  0  0  0  0  0  0  0  0  0
   69.5440   40.1230   36.5130 S   0  0  0  0  0  0  0  0  0  0  0  0
   67.4370   41.5140   37.1920 C   0  0  0  0  0  0  0  0  0  0  0  0
   70.2800   40.4420   35.5860 O   0  0  0  0  0  0  0  0  0  0  0  0
   66.2210   42.2890   37.0690 C   0  0  0  0  0  0  0  0  0  0  0  0
   68.4080   38.9250   36.6540 C   0  0  0  0  0  0  0  0  0  0  0  0
  1 11  1  0
  3  5  2  0
  3  2  1  0
  5  8  1  0
  6  2  1  0
  6 10  1  0
  7 11  1  0
  7  5  1  0
  7  4  2  0
  9  7  2  0
 10  8  1  0
M  END
$$$$

     RDKit          3D

  5  4  0  0  0  0  0  0  0  0999 V2000
   64.9880   41.4550   32.6070 C   0  0  0  0  0  0  0  0  0  0  0  0
   68.1200   39.9160   33.0940 C   0  0  0  0  0  0  0  0  0  0  0  0
   65.7620   40.4460   33.4040 C   0  0  0  0  0  0  0  0  0  0  0  0
   65.4000   40.2560   34.3000 O   0  0  0  0  0  0  0  0  0  0  0  0
   66.8080   39.7510   32.4060 C   0  0  0  0  0  0  0  0  0  0  0  0
  1  3  1  0
  3  4  2  0
  5  2  1  0
  5  3  1  0
M  END
$$$$
