
     RDKit          3D

 25 26  0  0  0  0  0  0  0  0999 V2000
   64.8600   37.7760   52.2230 C   0  0  0  0  0  0  0  0  0  0  0  0
   62.7660   38.9800   54.0350 C   0  0  0  0  0  0  0  0  0  0  0  0
   67.9140   39.4610   49.2720 C   0  0  0  0  0  0  0  0  0  0  0  0
   66.9890   40.4660   48.7940 O   0  0  0  0  0  0  0  0  0  0  0  0
   69.5360   40.1700   48.8620 S   0  0  0  0  0  0  0  0  0  0  0  0
   64.3250   39.1380   52.1160 C   0  0  0  0  0  0  0  0  0  0  0  0
   65.7260   37.2320   51.3730 C   0  0  0  0  0  0  0  0  0  0  0  0
   63.4290   39.7270   52.9720 C   0  0  0  0  0  0  0  0  0  0  0  0
   63.9740   37.0620   53.0170 C   0  0  0  0  0  0  0  0  0  0  0  0
   70.8120   43.3390   46.6310 C   0  0  0  0  0  0  0  0  0  0  0  0
   67.8510   38.2740   48.4600 N   0  0  0  0  0  0  0  0  0  0  0  0
   62.1920   35.4200   54.4520 C   0  0  0  0  0  0  0  0  0  0  0  0
   67.1920   39.1780   50.6310 C   0  0  0  0  0  0  0  0  0  0  0  0
   69.8680   39.3640   47.8210 O   0  0  0  0  0  0  0  0  0  0  0  0
   70.6620   41.2090   48.9020 O   0  0  0  0  0  0  0  0  0  0  0  0
   64.1310   35.6720   53.0040 C   0  0  0  0  0  0  0  0  0  0  0  0
   62.7460   36.7210   55.0070 C   0  0  0  0  0  0  0  0  0  0  0  0
   72.1840   43.0430   46.7420 C   0  0  0  0  0  0  0  0  0  0  0  0
   67.0970   37.7330   50.9510 C   0  0  0  0  0  0  0  0  0  0  0  0
   62.9180   37.6100   53.7710 C   0  0  0  0  0  0  0  0  0  0  0  0
   61.2380   39.1730   54.5380 C   0  0  0  0  0  0  0  0  0  0  0  0
   70.6150   44.2740   45.8510 N   0  0  0  0  0  0  0  0  0  0  0  0
   69.9780   42.5930   47.3120 N   0  0  0  0  0  0  0  0  0  0  0  0
   70.4750   42.5310   48.6800 C   0  0  0  0  0  0  0  0  0  0  0  0
   63.1360   34.8820   53.5360 C   0  0  0  0  0  0  0  0  0  0  0  0
  1  9  2  0
  2 21  1  0
  3 11  1  0
  3 13  1  0
  4  3  1  0
  5 14  2  0
  5 15  1  0
  5  3  1  0
  6  1  1  0
  6  8  2  0
  7  1  1  0
  8  2  1  0
  9 20  1  0
 10 18  1  0
 10 23  1  0
 12 17  1  0
 13 19  1  0
 16  9  1  0
 16 25  1  0
 19  7  1  0
 20  2  1  0
 20 17  1  0
 22 10  2  0
 23 24  1  0
 24 15  1  0
 25 12  1  0
M  END
$$$$

     RDKit          3D

  1  0  0  0  0  0  0  0  0  0999 V2000
  -17.8110   41.3520   86.0540 S   0  0  0  0  0  0  0  0  0  0  0  0
M  END
$$$$

     RDKit          3D

 10  9  0  0  0  0  0  0  0  0999 V2000
   69.7400   41.1990   46.9360 C   0  0  0  0  0  0  0  0  0  0  0  0
   67.2650   41.3430   47.1160 O   0  0  0  0  0  0  0  0  0  0  0  0
   71.8860   40.7490   48.1050 O   0  0  0  0  0  0  0  0  0  0  0  0
   67.4170   39.3520   48.7790 C   0  0  0  0  0  0  0  0  0  0  0  0
   71.1250   42.9250   47.9910 O   0  0  0  0  0  0  0  0  0  0  0  0
   68.5790   40.3120   48.9050 C   0  0  0  0  0  0  0  0  0  0  0  0
   70.8810   41.6930   47.7900 C   0  0  0  0  0  0  0  0  0  0  0  0
   67.7060   38.3630   48.0940 O   0  0  0  0  0  0  0  0  0  0  0  0
   66.2940   39.4750   49.2940 O   0  0  0  0  0  0  0  0  0  0  0  0
   68.5190   41.3780   47.8230 C   0  0  0  0  0  0  0  0  0  0  0  0
  1  7  1  0
  1 10  1  0
  2 10  1  0
  4  6  1  0
  4  9  1  0
  7  5  2  0
  7  3  1  0
  8  4  2  0
 10  6  1  0
M  END
$$$$

     RDKit          3D

  9  8  0  0  0  0  0  0  0  0999 V2000
   73.1920   41.3300   48.4570 O   0  0  0  0  0  0  0  0  0  0  0  0
   71.7150   39.0120   46.3530 O   0  0  0  0  0  0  0  0  0  0  0  0
   69.3980   41.3230   44.9120 O   0  0  0  0  0  0  0  0  0  0  0  0
   71.5610   41.4250   46.0410 C   0  0  0  0  0  0  0  0  0  0  0  0
   71.3850   40.3310   47.2820 C   0  0  0  0  0  0  0  0  0  0  0  0
   72.9080   40.4260   47.7770 C   0  0  0  0  0  0  0  0  0  0  0  0
   70.1920   42.0490   45.8490 C   0  0  0  0  0  0  0  0  0  0  0  0
   74.0800   40.0680   47.6470 O   0  0  0  0  0  0  0  0  0  0  0  0
   69.4990   42.0190   47.0900 O   0  0  0  0  0  0  0  0  0  0  0  0
  3  7  1  0
  4  5  1  0
  5  2  1  0
  5  6  1  0
  6  1  1  0
  7  4  1  0
  7  9  1  0
  8  6  2  0
M  END
$$$$

     RDKit          3D

 12 12  0  0  0  0  0  0  0  0999 V2000
   69.2000   40.6110   46.8500 O   0  0  0  0  0  0  0  0  0  0  0  0
   70.7070   40.4850   48.7350 C   0  0  0  0  0  0  0  0  0  0  0  0
   71.3440   41.4960   45.9630 C   0  0  0  0  0  0  0  0  0  0  0  0
   71.8290   40.2440   46.5770 O   0  0  0  0  0  0  0  0  0  0  0  0
   70.0230   41.3280   47.7940 C   0  0  0  0  0  0  0  0  0  0  0  0
   71.4740   39.6450   47.7620 C   0  0  0  0  0  0  0  0  0  0  0  0
   71.0020   43.5400   47.2170 O   0  0  0  0  0  0  0  0  0  0  0  0
   70.6150   42.2810   46.9260 C   0  0  0  0  0  0  0  0  0  0  0  0
   72.0400   38.5340   48.1940 O   0  0  0  0  0  0  0  0  0  0  0  0
   69.8640   42.0540   44.1370 O   0  0  0  0  0  0  0  0  0  0  0  0
   67.8570   40.4310   47.3150 C   0  0  0  0  0  0  0  0  0  0  0  0
   70.6930   41.0230   44.5930 C   0  0  0  0  0  0  0  0  0  0  0  0
  1 11  1  0
  3 12  1  0
  3  4  1  0
  3  8  1  0
  4  6  1  0
  5  1  1  0
  5  2  1  0
  6  9  2  0
  6  2  1  0
  8  7  1  0
  8  5  1  0
 10 12  1  0
M  END
$$$$

     RDKit          3D

 12 11  0  0  0  0  0  0  0  0999 V2000
   63.2450   39.1780   52.1030 C   0  0  0  0  0  0  0  0  0  0  0  0
   66.0380   40.5140   49.7810 C   0  0  0  0  0  0  0  0  0  0  0  0
   64.9660   40.3090   50.4740 C   0  0  0  0  0  0  0  0  0  0  0  0
   68.2970   40.2190   48.5010 C   0  0  0  0  0  0  0  0  0  0  0  0
   60.9670   38.2380   52.5250 O   0  0  0  0  0  0  0  0  0  0  0  0
   61.7770   39.3060   52.2550 C   0  0  0  0  0  0  0  0  0  0  0  0
   62.0210   37.5080   53.4710 O   0  0  0  0  0  0  0  0  0  0  0  0
   70.1150   41.7400   47.0660 C   0  0  0  0  0  0  0  0  0  0  0  0
   69.1880   41.1550   47.9580 C   0  0  0  0  0  0  0  0  0  0  0  0
   66.8910   40.6590   48.9210 C   0  0  0  0  0  0  0  0  0  0  0  0
   63.7090   40.2120   51.0440 C   0  0  0  0  0  0  0  0  0  0  0  0
   70.5790   42.6560   46.3510 O   0  0  0  0  0  0  0  0  0  0  0  0
  1  6  1  0
  2  3  3  0
  3 11  1  0
  4 10  1  0
  5  7  1  0
  6  5  1  0
  8  9  3  0
  9  4  1  0
 10  2  1  0
 11  1  1  0
 12  8  1  0
M  END
$$$$

     RDKit          3D

 11 10  0  0  0  0  0  0  0  0999 V2000
   66.7720   41.7630   45.4190 O   0  0  0  0  0  0  0  0  0  0  0  0
   66.1600   39.4680   48.9070 C   0  0  0  0  0  0  0  0  0  0  0  0
   70.9040   40.3850   48.2390 C   0  0  0  0  0  0  0  0  0  0  0  0
   71.6930   40.5860   49.2960 O   0  0  0  0  0  0  0  0  0  0  0  0
   66.2110   41.5110   46.8160 C   0  0  0  0  0  0  0  0  0  0  0  0
   67.3650   39.9910   48.0880 C   0  0  0  0  0  0  0  0  0  0  0  0
   67.0930   41.4230   47.7260 C   0  0  0  0  0  0  0  0  0  0  0  0
   68.5410   40.1630   49.0400 C   0  0  0  0  0  0  0  0  0  0  0  0
   71.2170   39.6080   47.3880 O   0  0  0  0  0  0  0  0  0  0  0  0
   69.5790   41.1130   48.4140 C   0  0  0  0  0  0  0  0  0  0  0  0
   67.8300   39.0730   46.9920 O   0  0  0  0  0  0  0  0  0  0  0  0
  1  5  1  0
  3 10  1  0
  3  4  1  0
  5  7  1  0
  6  2  1  0
  6  8  1  0
  7  6  1  0
  9  3  2  0
 10  8  1  0
 11  6  1  0
M  END
$$$$

     RDKit          3D

 27 29  0  0  0  0  0  0  0  0999 V2000
   64.9190   38.5400   52.7780 C   0  0  0  0  0  0  0  0  0  0  0  0
   67.7830   43.1430   45.7550 C   0  0  0  0  0  0  0  0  0  0  0  0
   69.0080   44.0890   45.8460 C   0  0  0  0  0  0  0  0  0  0  0  0
   62.3380   38.1780   52.5610 C   0  0  0  0  0  0  0  0  0  0  0  0
   70.0540   43.4630   44.7790 C   0  0  0  0  0  0  0  0  0  0  0  0
   65.9210   39.3380   50.3890 C   0  0  0  0  0  0  0  0  0  0  0  0
   72.3910   43.1040   45.3840 C   0  0  0  0  0  0  0  0  0  0  0  0
   66.4540   40.6490   48.5430 C   0  0  0  0  0  0  0  0  0  0  0  0
   67.2230   41.3680   47.4920 C   0  0  0  0  0  0  0  0  0  0  0  0
   65.9310   37.8480   51.3650 S   0  0  0  0  0  0  0  0  0  0  0  0
   69.7130   44.3060   43.4910 O   0  0  0  0  0  0  0  0  0  0  0  0
   68.7700   45.4910   45.6020 O   0  0  0  0  0  0  0  0  0  0  0  0
   66.8140   43.6990   45.0990 O   0  0  0  0  0  0  0  0  0  0  0  0
   70.1280   41.9310   45.4700 C   0  0  0  0  0  0  0  0  0  0  0  0
   63.6440   37.8870   53.3550 C   0  0  0  0  0  0  0  0  0  0  0  0
   70.8850   41.0770   45.0170 O   0  0  0  0  0  0  0  0  0  0  0  0
   66.8380   39.6570   49.4060 N   0  0  0  0  0  0  0  0  0  0  0  0
   61.8590   37.0620   55.0800 C   0  0  0  0  0  0  0  0  0  0  0  0
   67.2790   42.7410   47.1020 O   0  0  0  0  0  0  0  0  0  0  0  0
   62.8640   36.0210   54.7840 C   0  0  0  0  0  0  0  0  0  0  0  0
   64.6190   40.3480   50.1410 S   0  0  0  0  0  0  0  0  0  0  0  0
   68.4060   40.6680   46.8550 C   0  0  0  0  0  0  0  0  0  0  0  0
   62.5770   38.1690   51.1720 N   0  0  0  0  0  0  0  0  0  0  0  0
   69.5540   41.6460   46.8670 C   0  0  0  0  0  0  0  0  0  0  0  0
   71.4340   43.4420   44.2560 O   0  0  0  0  0  0  0  0  0  0  0  0
   65.1570   41.0630   48.7320 C   0  0  0  0  0  0  0  0  0  0  0  0
   63.3240   37.3180   54.7760 C   0  0  0  0  0  0  0  0  0  0  0  0
  1 15  1  0
  2 13  1  0
  2  3  1  0
  2 19  1  0
  3 12  1  0
  5 11  1  0
  5 14  1  0
  5  3  1  0
  6 10  1  0
  8 26  2  0
  8 17  1  0
  9  8  1  0
 10  1  1  0
 14 24  1  0
 15  4  1  0
 15 27  1  0
 16 14  2  0
 17  6  2  0
 19  9  1  0
 20 18  1  0
 21  6  1  0
 22 24  1  0
 22  9  1  0
 23  4  1  0
 25  5  1  0
 25  7  1  0
 26 21  1  0
 27 20  1  0
 27 18  1  0
M  END
$$$$

     RDKit          3D

 25 28  0  0  0  0  0  0  0  0999 V2000
   74.1280   37.8980   47.2250 C   0  0  0  0  0  0  0  0  0  0  0  0
   66.6750   41.0440   49.1220 N   0  0  0  0  0  0  0  0  0  0  0  0
   65.3660   39.7000   50.7000 C   0  0  0  0  0  0  0  0  0  0  0  0
   68.4770   41.2230   47.2590 C   0  0  0  0  0  0  0  0  0  0  0  0
   71.8950   39.7900   48.2060 N   0  0  0  0  0  0  0  0  0  0  0  0
   65.4200   38.5580   51.5580 C   0  0  0  0  0  0  0  0  0  0  0  0
   71.2320   37.6000   48.0600 C   0  0  0  0  0  0  0  0  0  0  0  0
   75.1960   40.0510   45.9030 O   0  0  0  0  0  0  0  0  0  0  0  0
   72.9770   39.8690   46.2010 C   0  0  0  0  0  0  0  0  0  0  0  0
   71.2440   36.7620   47.0190 O   0  0  0  0  0  0  0  0  0  0  0  0
   75.2690   39.0020   46.8580 C   0  0  0  0  0  0  0  0  0  0  0  0
   74.0000   40.7980   45.7600 C   0  0  0  0  0  0  0  0  0  0  0  0
   66.5350   40.0810   50.0100 C   0  0  0  0  0  0  0  0  0  0  0  0
   72.8700   38.5470   46.4220 C   0  0  0  0  0  0  0  0  0  0  0  0
   70.8400   40.3580   48.8330 C   0  0  0  0  0  0  0  0  0  0  0  0
   63.0890   40.0390   51.4400 C   0  0  0  0  0  0  0  0  0  0  0  0
   64.3430   38.3320   52.4110 C   0  0  0  0  0  0  0  0  0  0  0  0
   71.6100   38.7840   47.2080 C   0  0  0  0  0  0  0  0  0  0  0  0
   64.1540   40.4190   50.5900 C   0  0  0  0  0  0  0  0  0  0  0  0
   67.9630   40.9690   48.6570 C   0  0  0  0  0  0  0  0  0  0  0  0
   70.7100   38.1980   49.3690 C   0  0  0  0  0  0  0  0  0  0  0  0
   68.4720   39.9500   49.3520 C   0  0  0  0  0  0  0  0  0  0  0  0
   69.7980   39.3120   49.1040 N   0  0  0  0  0  0  0  0  0  0  0  0
   63.2190   39.2450   52.3530 C   0  0  0  0  0  0  0  0  0  0  0  0
   67.6400   39.3760   50.1480 N   0  0  0  0  0  0  0  0  0  0  0  0
  2 13  2  0
  3  6  1  0
  5 15  1  0
  6 17  2  0
  7 10  1  0
  7 21  1  0
  8 11  1  0
  9 14  1  0
 11  1  1  0
 12  8  1  0
 12  9  1  0
 13 25  1  0
 13  3  1  0
 14  1  1  0
 15 23  1  0
 16 24  2  0
 18 14  1  0
 18  7  1  0
 18  5  1  0
 19  3  2  0
 19 16  1  0
 20  4  1  0
 20  2  1  0
 20 22  1  0
 22 25  2  0
 23 22  1  0
 23 21  1  0
 24 17  1  0
M  END
$$$$

     RDKit          3D

 11 10  0  0  0  0  0  0  0  0999 V2000
   66.5310   39.0090   50.4160 C   0  0  0  0  0  0  0  0  0  0  0  0
   65.4380   39.6410   51.2900 C   0  0  0  0  0  0  0  0  0  0  0  0
   61.9320   39.5810   53.1500 C   0  0  0  0  0  0  0  0  0  0  0  0
   62.9130   40.0070   52.0200 C   0  0  0  0  0  0  0  0  0  0  0  0
   64.2350   39.1690   52.1510 C   0  0  0  0  0  0  0  0  0  0  0  0
   67.7460   39.5200   48.2000 C   0  0  0  0  0  0  0  0  0  0  0  0
   66.5930   39.4820   48.9620 C   0  0  0  0  0  0  0  0  0  0  0  0
   60.2800   39.9130   55.5670 C   0  0  0  0  0  0  0  0  0  0  0  0
   61.8870   38.3470   54.1530 C   0  0  0  0  0  0  0  0  0  0  0  0
   68.5720   40.3190   47.7410 N   0  0  0  0  0  0  0  0  0  0  0  0
   60.9530   38.7780   55.3000 C   0  0  0  0  0  0  0  0  0  0  0  0
  1  2  1  0
  2  5  1  0
  3  9  1  0
  4  5  1  0
  4  3  1  0
  6  7  1  0
  7  1  1  0
  9 11  1  0
 10  6  2  0
 11  8  2  0
M  END
$$$$

     RDKit          3D

 18 20  0  0  0  0  0  0  0  0999 V2000
   69.9270   39.4370   46.7260 C   0  0  0  0  0  0  0  0  0  0  0  0
   69.8180   40.4100   45.7280 C   0  0  0  0  0  0  0  0  0  0  0  0
   70.1370   42.7310   45.0760 N   0  0  0  0  0  0  0  0  0  0  0  0
   69.8720   38.5910   49.2790 C   0  0  0  0  0  0  0  0  0  0  0  0
   70.6300   37.0720   47.0510 C   0  0  0  0  0  0  0  0  0  0  0  0
   70.6050   36.7920   50.9780 C   0  0  0  0  0  0  0  0  0  0  0  0
   70.3860   41.0580   48.4350 C   0  0  0  0  0  0  0  0  0  0  0  0
   70.8290   41.9580   47.3090 C   0  0  0  0  0  0  0  0  0  0  0  0
   69.4100   40.4240   44.4320 N   0  0  0  0  0  0  0  0  0  0  0  0
   69.6630   41.3470   43.4610 N   0  0  0  0  0  0  0  0  0  0  0  0
   70.3570   37.0890   49.5090 C   0  0  0  0  0  0  0  0  0  0  0  0
   69.5900   39.7620   48.2350 C   0  0  0  0  0  0  0  0  0  0  0  0
   69.8450   41.8690   46.1450 C   0  0  0  0  0  0  0  0  0  0  0  0
   70.0930   39.1330   50.5500 O   0  0  0  0  0  0  0  0  0  0  0  0
   70.7600   36.4520   48.3130 C   0  0  0  0  0  0  0  0  0  0  0  0
   70.2520   42.4990   43.8160 C   0  0  0  0  0  0  0  0  0  0  0  0
   70.3380   38.1090   46.3040 C   0  0  0  0  0  0  0  0  0  0  0  0
   70.9480   43.4660   42.8730 C   0  0  0  0  0  0  0  0  0  0  0  0
  1 17  1  0
  1 12  1  0
  2  9  1  0
  2 13  1  0
  2  1  1  0
  3 13  1  0
  4 11  1  0
  4 14  1  0
  5 15  1  0
  8  7  1  0
 10 16  1  0
 10  9  2  0
 11  6  1  0
 12  7  1  0
 12  4  1  0
 13  8  1  0
 15 11  2  0
 16  3  2  0
 17  5  2  0
 18 16  1  0
M  END
$$$$

     RDKit          3D

  4  3  0  0  0  0  0  0  0  0999 V2000
   71.3050   39.9170   46.6320 O   0  0  0  0  0  0  0  0  0  0  0  0
   70.0980   38.8670   48.4710 O   0  0  0  0  0  0  0  0  0  0  0  0
   72.2740   39.2610   48.4120 O   0  0  0  0  0  0  0  0  0  0  0  0
   71.0170   39.4700   47.8410 S   0  0  0  0  0  0  0  0  0  0  0  0
  1  4  2  0
  4  3  2  0
  4  2  2  0
M  END
$$$$

     RDKit          3D

  7  7  0  0  0  0  0  0  0  0999 V2000
   70.7140   38.3890   46.7680 C   0  0  0  0  0  0  0  0  0  0  0  0
   71.7280   39.9690   45.7700 O   0  0  0  0  0  0  0  0  0  0  0  0
   68.8880   40.9340   48.3500 F   0  0  0  0  0  0  0  0  0  0  0  0
   70.9030   41.2450   47.5080 C   0  0  0  0  0  0  0  0  0  0  0  0
   71.2050   39.7160   47.2580 C   0  0  0  0  0  0  0  0  0  0  0  0
   69.4190   41.3400   47.2270 C   0  0  0  0  0  0  0  0  0  0  0  0
   70.5630   42.7130   47.0120 S   0  0  0  0  0  0  0  0  0  0  0  0
  2  5  1  0
  4  5  1  0
  5  1  1  0
  6  4  1  0
  6  3  1  0
  7  6  1  0
  7  4  1  0
M  END
$$$$

     RDKit          3D

 12 13  0  0  0  0  0  0  0  0999 V2000
   70.3700   41.3430   46.2370 C   0  0  0  0  0  0  0  0  0  0  0  0
   71.3860   40.3020   45.6710 C   0  0  0  0  0  0  0  0  0  0  0  0
   69.4620   40.4030   47.0620 O   0  0  0  0  0  0  0  0  0  0  0  0
   70.6490   37.9450   46.4950 O   0  0  0  0  0  0  0  0  0  0  0  0
   69.7090   42.6990   46.6580 C   0  0  0  0  0  0  0  0  0  0  0  0
   70.1930   42.7380   48.0190 O   0  0  0  0  0  0  0  0  0  0  0  0
   72.6890   38.4320   46.8130 O   0  0  0  0  0  0  0  0  0  0  0  0
   71.7430   41.3840   46.7030 C   0  0  0  0  0  0  0  0  0  0  0  0
   71.5900   42.3110   48.0430 C   0  0  0  0  0  0  0  0  0  0  0  0
   71.7000   38.8930   46.2560 C   0  0  0  0  0  0  0  0  0  0  0  0
   67.5240   41.6220   46.3910 O   0  0  0  0  0  0  0  0  0  0  0  0
   68.2490   42.8510   46.3990 C   0  0  0  0  0  0  0  0  0  0  0  0
  1  5  1  0
  1  8  1  0
  1  3  1  0
  2  1  1  0
  2 10  1  0
  2  8  1  0
  5 12  1  0
  5  6  1  0
  6  9  1  0
  8  9  1  0
 10  4  2  0
 10  7  1  0
 11 12  1  0
M  END
$$$$

     RDKit          3D

 14 13  0  0  0  0  0  0  0  0999 V2000
   69.5510   40.0220   48.2350 C   0  0  0  0  0  0  0  0  0  0  0  0
   69.7150   40.1240   45.4220 N   0  0  0  0  0  0  0  0  0  0  0  0
   66.7750   38.6930   50.0170 C   0  0  0  0  0  0  0  0  0  0  0  0
   70.2690   41.1780   46.2100 C   0  0  0  0  0  0  0  0  0  0  0  0
   70.8840   39.0230   45.2840 C   0  0  0  0  0  0  0  0  0  0  0  0
   64.3970   39.1190   53.1550 C   0  0  0  0  0  0  0  0  0  0  0  0
   63.4420   37.9090   53.2930 C   0  0  0  0  0  0  0  0  0  0  0  0
   61.9960   38.5110   53.0950 C   0  0  0  0  0  0  0  0  0  0  0  0
   65.2030   39.3520   51.9670 C   0  0  0  0  0  0  0  0  0  0  0  0
   69.0670   39.2210   49.0860 C   0  0  0  0  0  0  0  0  0  0  0  0
   68.1130   39.3680   50.2370 C   0  0  0  0  0  0  0  0  0  0  0  0
   66.1270   38.3230   51.3630 C   0  0  0  0  0  0  0  0  0  0  0  0
   69.7870   41.0350   47.6670 C   0  0  0  0  0  0  0  0  0  0  0  0
   61.0830   37.9170   52.2850 O   0  0  0  0  0  0  0  0  0  0  0  0
  1 10  2  0
  2  4  1  0
  3 11  1  0
  3 12  1  0
  4 13  1  0
  5  2  1  0
  6  7  1  0
  8  7  1  0
  9  6  1  0
 10 11  1  0
 12  9  2  3
 13  1  2  0
 14  8  1  0
M  END
$$$$

     RDKit          3D

 15 16  0  0  0  0  0  0  0  0999 V2000
   70.4170   40.1030   49.1390 O   0  0  0  0  0  0  0  0  0  0  0  0
   70.2760   37.5070   46.1990 C   0  0  0  0  0  0  0  0  0  0  0  0
   71.6560   37.2690   46.7580 C   0  0  0  0  0  0  0  0  0  0  0  0
   70.2140   39.7890   46.7940 N   0  0  0  0  0  0  0  0  0  0  0  0
   71.6150   38.2470   47.9580 N   0  0  0  0  0  0  0  0  0  0  0  0
   67.7470   42.3430   46.6930 N   0  0  0  0  0  0  0  0  0  0  0  0
   69.8940   42.5910   47.4490 C   0  0  0  0  0  0  0  0  0  0  0  0
   72.3820   42.2830   47.0600 C   0  0  0  0  0  0  0  0  0  0  0  0
   69.6860   41.1870   46.9820 C   0  0  0  0  0  0  0  0  0  0  0  0
   70.7070   39.3400   48.0850 C   0  0  0  0  0  0  0  0  0  0  0  0
   71.2890   43.1990   47.5100 C   0  0  0  0  0  0  0  0  0  0  0  0
   68.7690   43.3450   47.0900 C   0  0  0  0  0  0  0  0  0  0  0  0
   68.2800   41.1160   46.4790 C   0  0  0  0  0  0  0  0  0  0  0  0
   70.3310   38.9650   45.7420 C   0  0  0  0  0  0  0  0  0  0  0  0
   67.8000   39.9890   46.2450 O   0  0  0  0  0  0  0  0  0  0  0  0
  2  3  1  0
  3  5  1  0
  4 10  1  0
  5 10  1  0
  6 12  1  0
  7 11  1  0
  8 11  1  0
  9  4  1  0
  9  7  1  0
 10  1  2  0
 12  7  1  0
 13  6  1  0
 13  9  1  0
 14  2  1  0
 14  4  1  0
 15 13  2  0
M  END
$$$$

     RDKit          3D

 13 14  0  0  0  0  0  0  0  0999 V2000
   72.0370   39.3130   49.5280 O   0  0  0  0  0  0  0  0  0  0  0  0
   66.5580   41.5630   47.1750 O   0  0  0  0  0  0  0  0  0  0  0  0
   72.0060   40.7920   47.7720 O   0  0  0  0  0  0  0  0  0  0  0  0
   66.3380   40.1970   47.9680 P   0  0  0  0  0  0  0  0  0  0  0  0
   69.9080   38.5010   47.4290 O   0  0  0  0  0  0  0  0  0  0  0  0
   67.8820   39.7670   48.1930 C   0  0  0  0  0  0  0  0  0  0  0  0
   71.8040   39.8730   47.0300 C   0  0  0  0  0  0  0  0  0  0  0  0
   71.1090   38.8520   46.3770 C   0  0  0  0  0  0  0  0  0  0  0  0
   65.7920   39.2360   46.9120 O   0  0  0  0  0  0  0  0  0  0  0  0
   70.0410   39.4840   48.3770 C   0  0  0  0  0  0  0  0  0  0  0  0
   65.4910   40.5440   48.8490 O   0  0  0  0  0  0  0  0  0  0  0  0
   71.4970   39.7830   48.4380 C   0  0  0  0  0  0  0  0  0  0  0  0
   69.0520   40.5790   48.9100 C   0  0  0  0  0  0  0  0  0  0  0  0
  2  4  1  0
  3 12  1  0
  4  6  1  0
  4 11  1  0
  5 10  1  0
  6 13  1  0
  7  8  1  0
  7  3  1  0
  7 12  1  0
  8  5  1  0
  9  4  2  0
 10 12  1  0
 10 13  1  0
 12  1  1  0
M  END
$$$$

     RDKit          3D

  5  4  0  0  0  0  0  0  0  0999 V2000
   70.9750   40.5670   49.2610 O   0  0  0  0  0  0  0  0  0  0  0  0
   69.8830   41.9240   46.6360 O   0  0  0  0  0  0  0  0  0  0  0  0
   70.6680   40.0030   48.0700 C   0  0  0  0  0  0  0  0  0  0  0  0
   70.5940   38.8050   48.0400 O   0  0  0  0  0  0  0  0  0  0  0  0
   70.9160   41.0380   47.0430 C   0  0  0  0  0  0  0  0  0  0  0  0
  2  5  1  0
  3  1  1  0
  4  3  2  0
  5  3  1  0
M  END
$$$$

     RDKit          3D

 10 11  0  0  0  0  0  0  0  0999 V2000
   67.2980   41.4560   48.0840 C   0  0  0  0  0  0  0  0  0  0  0  0
   74.0300   40.2690   47.9280 O   0  0  0  0  0  0  0  0  0  0  0  0
   69.7800   40.9520   47.9990 N   0  0  0  0  0  0  0  0  0  0  0  0
   70.8490   40.1690   48.2870 C   0  0  0  0  0  0  0  0  0  0  0  0
   73.5110   41.1230   47.2630 C   0  0  0  0  0  0  0  0  0  0  0  0
   73.0170   42.4550   47.2270 C   0  0  0  0  0  0  0  0  0  0  0  0
   67.9660   41.5460   46.7650 N   0  0  0  0  0  0  0  0  0  0  0  0
   71.0140   40.8160   47.2480 C   0  0  0  0  0  0  0  0  0  0  0  0
   71.6050   42.1460   47.6640 C   0  0  0  0  0  0  0  0  0  0  0  0
   68.4650   40.5900   47.8760 C   0  0  0  0  0  0  0  0  0  0  0  0
  3  4  1  0
  5  2  2  0
  6  5  1  0
  6  9  1  0
  7 10  1  0
  7  1  1  0
  8  9  1  0
  8  3  1  0
  8  4  1  0
 10  3  1  0
 10  1  1  0
M  END
$$$$

     RDKit          3D

 26 26  0  0  0  0  0  0  0  0999 V2000
   76.3290   38.8550   48.9580 C   0  0  0  0  0  0  0  0  0  0  0  0
   61.2900   38.3200   52.5050 C   0  0  0  0  0  0  0  0  0  0  0  0
   76.7180   41.5380   45.6420 O   0  0  0  0  0  0  0  0  0  0  0  0
   64.4680   39.6650   51.1570 C   0  0  0  0  0  0  0  0  0  0  0  0
   75.6380   41.2510   46.1540 C   0  0  0  0  0  0  0  0  0  0  0  0
   57.6770   37.8480   53.5610 C   0  0  0  0  0  0  0  0  0  0  0  0
   68.0480   40.1180   48.6420 C   0  0  0  0  0  0  0  0  0  0  0  0
   62.3850   38.5790   51.8060 N   0  0  0  0  0  0  0  0  0  0  0  0
   66.9330   39.0100   50.6170 C   0  0  0  0  0  0  0  0  0  0  0  0
   58.5230   38.7420   52.8670 C   0  0  0  0  0  0  0  0  0  0  0  0
   70.0830   39.9980   47.2480 C   0  0  0  0  0  0  0  0  0  0  0  0
   78.0730   40.2850   48.1230 C   0  0  0  0  0  0  0  0  0  0  0  0
   60.0430   39.0410   52.7080 C   0  0  0  0  0  0  0  0  0  0  0  0
   63.8400   38.5840   52.0530 C   0  0  0  0  0  0  0  0  0  0  0  0
   76.7720   39.8120   47.8140 C   0  0  0  0  0  0  0  0  0  0  0  0
   65.9730   39.4180   51.1220 C   0  0  0  0  0  0  0  0  0  0  0  0
   71.4040   40.2360   47.3820 C   0  0  0  0  0  0  0  0  0  0  0  0
   75.5550   40.4890   47.3030 N   0  0  0  0  0  0  0  0  0  0  0  0
   69.2690   40.9590   48.2950 C   0  0  0  0  0  0  0  0  0  0  0  0
   68.1940   39.3260   49.9620 C   0  0  0  0  0  0  0  0  0  0  0  0
   73.1900   41.0160   46.2560 C   0  0  0  0  0  0  0  0  0  0  0  0
   57.8990   39.5640   51.6230 C   0  0  0  0  0  0  0  0  0  0  0  0
   60.0410   40.4960   52.2330 O   0  0  0  0  0  0  0  0  0  0  0  0
   74.2600   41.7580   45.7080 C   0  0  0  0  0  0  0  0  0  0  0  0
   58.1000   39.1480   54.1890 O   0  0  0  0  0  0  0  0  0  0  0  0
   72.4970   40.1410   46.5400 C   0  0  0  0  0  0  0  0  0  0  0  0
  2 13  1  0
  3  5  2  0
  4 14  1  0
  5 18  1  0
  6 25  1  0
  7 20  1  0
  8 14  1  0
  8  2  1  0
  9 16  1  0
 10 22  1  0
 10  6  1  0
 10 25  1  0
 11 17  1  0
 11 19  1  0
 13 23  1  0
 13 10  1  0
 15 12  1  0
 15  1  1  0
 16  4  1  0
 18 15  1  0
 19  7  1  0
 20  9  1  0
 21 26  1  0
 24  5  1  0
 24 21  1  0
 26 17  1  0
M  END
$$$$
