
     RDKit          3D

  4  3  0  0  0  0  0  0  0  0999 V2000
   66.8600   43.5610   28.4550 C   0  0  0  0  0  0  0  0  0  0  0  0
   69.1960   43.8690   27.7340 O   0  0  0  0  0  0  0  0  0  0  0  0
   65.7980   43.3000   29.3110 N   0  0  0  0  0  0  0  0  0  0  0  0
   68.1170   44.5760   28.4780 C   0  0  0  0  0  0  0  0  0  0  0  0
  1  4  1  0
  1  3  1  0
  2  4  1  0
M  END
$$$$

     RDKit          3D

 12 11  0  0  0  0  0  0  0  0999 V2000
   59.7440   43.6160   34.4680 C   0  0  0  0  0  0  0  0  0  0  0  0
   63.5560   42.4370   29.4380 C   0  0  0  0  0  0  0  0  0  0  0  0
   58.8850   44.8660   34.6490 C   0  0  0  0  0  0  0  0  0  0  0  0
   64.8570   40.7370   29.3840 N   0  0  0  0  0  0  0  0  0  0  0  0
   65.0290   42.1670   29.8290 C   0  0  0  0  0  0  0  0  0  0  0  0
   60.8750   43.6750   33.7420 C   0  0  0  0  0  0  0  0  0  0  0  0
   57.9650   46.4400   36.2470 N   0  0  0  0  0  0  0  0  0  0  0  0
   65.8120   43.0480   28.9750 O   0  0  0  0  0  0  0  0  0  0  0  0
   62.6900   42.2650   31.7740 C   0  0  0  0  0  0  0  0  0  0  0  0
   62.7760   43.1380   30.5210 C   0  0  0  0  0  0  0  0  0  0  0  0
   61.9520   43.2950   32.7790 C   0  0  0  0  0  0  0  0  0  0  0  0
   58.9630   45.5440   35.7540 C   0  0  0  0  0  0  0  0  0  0  0  0
  1  3  1  0
  2  5  1  0
  2 10  1  0
  3 12  1  0
  4  5  1  0
  5  8  1  0
  6  1  2  0
  9 11  1  0
 10  9  1  0
 11  6  2  0
 12  7  1  0
M  END
$$$$

     RDKit          3D

 17 17  0  0  0  0  0  0  0  0999 V2000
   62.5560   43.0230   29.6720 C   0  0  0  0  0  0  0  0  0  0  0  0
   63.2290   42.2840   30.8630 C   0  0  0  0  0  0  0  0  0  0  0  0
   63.6910   40.8810   30.3570 C   0  0  0  0  0  0  0  0  0  0  0  0
   65.9520   39.4420   30.7880 C   0  0  0  0  0  0  0  0  0  0  0  0
   61.6050   44.8980   31.1160 C   0  0  0  0  0  0  0  0  0  0  0  0
   60.3590   45.4050   31.8100 C   0  0  0  0  0  0  0  0  0  0  0  0
   59.1170   45.7290   30.9550 C   0  0  0  0  0  0  0  0  0  0  0  0
   63.2750   45.6160   32.7090 O   0  0  0  0  0  0  0  0  0  0  0  0
   61.3830   43.9350   29.9560 C   0  0  0  0  0  0  0  0  0  0  0  0
   64.7840   41.0090   29.2510 C   0  0  0  0  0  0  0  0  0  0  0  0
   64.9530   38.8390   31.1900 O   0  0  0  0  0  0  0  0  0  0  0  0
   63.2950   43.1770   32.1440 C   0  0  0  0  0  0  0  0  0  0  0  0
   62.8330   44.6470   31.9280 C   0  0  0  0  0  0  0  0  0  0  0  0
   65.9950   40.3820   29.6450 C   0  0  0  0  0  0  0  0  0  0  0  0
   67.1870   40.6420   29.2150 O   0  0  0  0  0  0  0  0  0  0  0  0
   64.3740   41.7500   28.1530 O   0  0  0  0  0  0  0  0  0  0  0  0
   66.9440   39.3610   31.5180 O   0  0  0  0  0  0  0  0  0  0  0  0
  1  9  1  0
  1  2  1  0
  2  3  1  0
  2 12  1  0
  4 11  2  0
  4 17  1  0
  5  6  1  0
  5 13  1  0
  7  6  1  0
  9  5  1  0
 10 16  1  0
 10 14  1  0
 10  3  1  0
 13 12  1  0
 13  8  1  0
 14 15  1  0
 14  4  1  0
M  END
$$$$

     RDKit          3D

 36 38  0  0  0  0  0  0  0  0999 V2000
   64.0040   43.3050   29.5380 C   0  0  0  0  0  0  0  0  0  0  0  0
   57.3080   48.1620   32.0280 C   0  0  0  0  0  0  0  0  0  0  0  0
   62.2250   43.5200   31.1770 O   0  0  0  0  0  0  0  0  0  0  0  0
   58.6850   45.2540   35.6310 C   0  0  0  0  0  0  0  0  0  0  0  0
   66.3850   41.4850   33.3330 C   0  0  0  0  0  0  0  0  0  0  0  0
   68.3060   40.1460   34.1930 C   0  0  0  0  0  0  0  0  0  0  0  0
   64.6020   42.1570   28.9610 C   0  0  0  0  0  0  0  0  0  0  0  0
   68.2810   40.0120   35.5770 C   0  0  0  0  0  0  0  0  0  0  0  0
   60.5970   44.9630   31.5880 C   0  0  0  0  0  0  0  0  0  0  0  0
   66.1070   40.6360   28.1450 C   0  0  0  0  0  0  0  0  0  0  0  0
   66.0850   39.6040   38.0790 F   0  0  0  0  0  0  0  0  0  0  0  0
   58.8020   46.2520   32.7390 C   0  0  0  0  0  0  0  0  0  0  0  0
   67.4600   40.5880   33.2020 C   0  0  0  0  0  0  0  0  0  0  0  0
   67.4560   40.8960   36.5050 C   0  0  0  0  0  0  0  0  0  0  0  0
   65.7950   41.4770   29.3000 C   0  0  0  0  0  0  0  0  0  0  0  0
   63.5380   43.3960   30.9740 C   0  0  0  0  0  0  0  0  0  0  0  0
   68.2140   38.9890   39.5800 F   0  0  0  0  0  0  0  0  0  0  0  0
   58.2360   47.5300   32.9300 O   0  0  0  0  0  0  0  0  0  0  0  0
   61.4390   45.4710   29.3150 C   0  0  0  0  0  0  0  0  0  0  0  0
   66.1020   41.9360   34.6460 C   0  0  0  0  0  0  0  0  0  0  0  0
   60.3240   43.8810   32.5630 C   0  0  0  0  0  0  0  0  0  0  0  0
   65.4990   42.0800   31.3620 N   0  0  0  0  0  0  0  0  0  0  0  0
   67.3200   41.3260   38.8010 F   0  0  0  0  0  0  0  0  0  0  0  0
   59.5810   44.8850   36.3380 O   0  0  0  0  0  0  0  0  0  0  0  0
   65.5570   41.8700   32.5150 N   0  0  0  0  0  0  0  0  0  0  0  0
   65.6270   39.2990   28.5420 C   0  0  0  0  0  0  0  0  0  0  0  0
   59.2380   45.5010   33.9860 C   0  0  0  0  0  0  0  0  0  0  0  0
   66.7760   41.7460   35.7940 C   0  0  0  0  0  0  0  0  0  0  0  0
   59.8350   46.2710   31.6400 C   0  0  0  0  0  0  0  0  0  0  0  0
   64.9290   40.0770   27.4560 C   0  0  0  0  0  0  0  0  0  0  0  0
   68.4050   39.2570   38.3010 C   0  0  0  0  0  0  0  0  0  0  0  0
   57.4790   45.5560   35.6080 O   0  0  0  0  0  0  0  0  0  0  0  0
   60.0330   44.3170   33.8270 N   0  0  0  0  0  0  0  0  0  0  0  0
   67.2520   40.2050   37.8360 C   0  0  0  0  0  0  0  0  0  0  0  0
   61.3760   44.4380   30.4380 C   0  0  0  0  0  0  0  0  0  0  0  0
   66.4350   41.2570   30.4840 C   0  0  0  0  0  0  0  0  0  0  0  0
  1 16  1  0
  2 18  1  0
  4 24  1  0
  5 20  1  0
  6  8  2  0
  7  1  1  0
  8 14  1  0
  9 35  1  0
  9 29  1  0
  9 21  1  0
 10 26  1  0
 10 15  1  0
 12 18  1  0
 12 27  1  0
 13  5  2  0
 13  6  1  0
 14 34  1  0
 15  7  1  0
 15 36  1  0
 16  3  1  0
 20 28  1  0
 21 33  1  0
 22 25  1  0
 25  5  1  0
 27  4  1  0
 28 14  2  0
 29 12  1  0
 30 10  1  0
 30 26  1  0
 31 17  1  0
 32  4  2  0
 33 27  1  0
 34 11  1  0
 34 31  1  0
 34 23  1  0
 35 19  1  0
 35  3  1  0
 36 22  1  0
M  END
$$$$

     RDKit          3D

 10  9  0  0  0  0  0  0  0  0999 V2000
   60.7560   43.0610   31.4410 C   0  0  0  0  0  0  0  0  0  0  0  0
   60.8740   44.3920   32.1320 C   0  0  0  0  0  0  0  0  0  0  0  0
   61.3010   44.7740   33.3020 C   0  0  0  0  0  0  0  0  0  0  0  0
   61.0780   41.7990   32.1060 N   0  0  0  0  0  0  0  0  0  0  0  0
   62.7080   44.2200   35.3590 C   0  0  0  0  0  0  0  0  0  0  0  0
   59.3440   42.1480   29.7840 O   0  0  0  0  0  0  0  0  0  0  0  0
   58.3360   43.3360   31.3110 O   0  0  0  0  0  0  0  0  0  0  0  0
   59.3940   42.9100   30.7850 C   0  0  0  0  0  0  0  0  0  0  0  0
   63.7200   44.0040   36.2300 C   0  0  0  0  0  0  0  0  0  0  0  0
   62.6070   44.2620   33.9510 C   0  0  0  0  0  0  0  0  0  0  0  0
  1  4  1  0
  1  2  1  0
  2  3  1  0
  3 10  1  0
  5  9  2  0
  6  8  2  0
  8  7  1  0
  8  1  1  0
 10  5  1  0
M  END
$$$$

     RDKit          3D

  7  7  0  0  0  0  0  0  0  0999 V2000
   64.3870   42.9440   32.0620 C   0  0  0  0  0  0  0  0  0  0  0  0
   63.0060   43.2300   32.4030 C   0  0  0  0  0  0  0  0  0  0  0  0
   61.7020   43.8070   32.0000 N   0  0  0  0  0  0  0  0  0  0  0  0
   62.8750   43.3660   28.6650 N   0  0  0  0  0  0  0  0  0  0  0  0
   62.8160   43.0820   29.8720 C   0  0  0  0  0  0  0  0  0  0  0  0
   65.5870   42.9410   32.2060 N   0  0  0  0  0  0  0  0  0  0  0  0
   62.8570   43.8730   31.1100 C   0  0  0  0  0  0  0  0  0  0  0  0
  1  6  3  0
  2  1  1  0
  3  2  1  0
  4  5  2  0
  7  5  1  0
  7  3  1  0
  7  2  1  0
M  END
$$$$

     RDKit          3D

  6  5  0  0  0  0  0  0  0  0999 V2000
   61.2050   48.4680   34.1450 C   0  0  0  0  0  0  0  0  0  0  0  0
   60.7990   46.8770   37.4200 C   0  0  0  0  0  0  0  0  0  0  0  0
   61.1240   46.5960   35.9710 C   0  0  0  0  0  0  0  0  0  0  0  0
   60.2220   47.3720   33.8320 C   0  0  0  0  0  0  0  0  0  0  0  0
   59.9860   46.6080   35.0650 N   0  0  0  0  0  0  0  0  0  0  0  0
   60.3990   49.3330   34.9310 C   0  0  0  0  0  0  0  0  0  0  0  0
  1  6  1  0
  3  2  1  0
  4  1  1  0
  4  5  1  0
  5  3  1  0
M  END
$$$$

     RDKit          3D

  8  8  0  0  0  0  0  0  0  0999 V2000
   62.1340   43.2470   29.0440 O   0  0  0  0  0  0  0  0  0  0  0  0
   62.8720   43.8550   28.3520 C   0  0  0  0  0  0  0  0  0  0  0  0
   64.3750   43.8060   26.3230 O   0  0  0  0  0  0  0  0  0  0  0  0
   63.3990   43.6640   26.9630 C   0  0  0  0  0  0  0  0  0  0  0  0
   63.4550   44.8770   28.9860 O   0  0  0  0  0  0  0  0  0  0  0  0
   64.8580   41.8140   27.3700 O   0  0  0  0  0  0  0  0  0  0  0  0
   62.9810   41.2680   26.7140 O   0  0  0  0  0  0  0  0  0  0  0  0
   63.9680   42.5090   26.5400 C   0  0  0  0  0  0  0  0  0  0  0  0
  2  5  2  0
  2  1  1  0
  3  8  1  0
  3  4  1  0
  4  2  1  0
  8  7  1  0
  8  4  1  0
  8  6  1  0
M  END
$$$$

     RDKit          3D

 12 13  0  0  0  0  0  0  0  0999 V2000
   60.1910   44.4420   33.2580 C   0  0  0  0  0  0  0  0  0  0  0  0
   61.7890   44.0470   36.1200 N   0  0  0  0  0  0  0  0  0  0  0  0
   62.0150   44.0600   32.3380 O   0  0  0  0  0  0  0  0  0  0  0  0
   59.3900   43.2920   33.3980 N   0  0  0  0  0  0  0  0  0  0  0  0
   62.4730   44.1760   34.7870 C   0  0  0  0  0  0  0  0  0  0  0  0
   62.5330   44.9620   36.9920 C   0  0  0  0  0  0  0  0  0  0  0  0
   60.9880   44.2520   31.3220 C   0  0  0  0  0  0  0  0  0  0  0  0
   61.5240   45.8070   37.8000 C   0  0  0  0  0  0  0  0  0  0  0  0
   61.6280   44.1910   33.5530 C   0  0  0  0  0  0  0  0  0  0  0  0
   59.6390   43.8420   31.8470 C   0  0  0  0  0  0  0  0  0  0  0  0
   63.7180   43.9970   34.5860 O   0  0  0  0  0  0  0  0  0  0  0  0
   59.3530   42.4880   31.3660 O   0  0  0  0  0  0  0  0  0  0  0  0
  1  4  1  0
  1  9  1  0
  2  6  1  0
  3  9  1  0
  5  2  1  0
  6  8  1  0
  7 10  1  0
  7  3  1  0
  9  5  1  0
 10 12  1  0
 10  1  1  0
 10  4  1  0
 11  5  2  0
M  END
$$$$

     RDKit          3D

 11 10  0  0  0  0  0  0  0  0999 V2000
   61.3780   44.8190   29.7030 C   0  0  0  0  0  0  0  0  0  0  0  0
   59.1550   42.8620   31.7360 O   0  0  0  0  0  0  0  0  0  0  0  0
   62.5080   43.3780   31.4160 C   0  0  0  0  0  0  0  0  0  0  0  0
   63.9100   41.2760   32.3540 S   0  0  0  0  0  0  0  0  0  0  0  0
   66.3130   39.0120   31.6800 N   0  0  0  0  0  0  0  0  0  0  0  0
   60.6980   42.3930   29.7610 C   0  0  0  0  0  0  0  0  0  0  0  0
   63.1980   42.2580   31.4470 C   0  0  0  0  0  0  0  0  0  0  0  0
   60.2210   43.8100   31.7470 C   0  0  0  0  0  0  0  0  0  0  0  0
   66.3420   40.1470   31.9030 C   0  0  0  0  0  0  0  0  0  0  0  0
   65.5100   41.4800   32.0480 C   0  0  0  0  0  0  0  0  0  0  0  0
   61.2330   43.5580   30.5810 C   0  0  0  0  0  0  0  0  0  0  0  0
  1 11  1  0
  2  8  1  0
  3  7  1  0
  5  9  2  0
  6 11  1  0
  7  4  1  0
  9 10  1  0
 10  4  1  0
 11  3  1  0
 11  8  1  0
M  END
$$$$

     RDKit          3D

 18 18  0  0  0  0  0  0  0  0999 V2000
   60.4230   46.1680   36.3000 N   0  0  0  0  0  0  0  0  0  0  0  0
   63.2920   43.8050   38.3800 O   0  0  0  0  0  0  0  0  0  0  0  0
   63.7450   45.0780   37.8910 C   0  0  0  0  0  0  0  0  0  0  0  0
   61.6840   45.4400   36.5090 C   0  0  0  0  0  0  0  0  0  0  0  0
   63.0930   44.3660   32.7320 O   0  0  0  0  0  0  0  0  0  0  0  0
   62.4360   43.7400   31.8550 C   0  0  0  0  0  0  0  0  0  0  0  0
   62.5220   47.0310   38.2070 O   0  0  0  0  0  0  0  0  0  0  0  0
   62.8530   42.9160   31.0240 O   0  0  0  0  0  0  0  0  0  0  0  0
   64.5880   45.9220   38.8290 C   0  0  0  0  0  0  0  0  0  0  0  0
   63.0920   46.3890   34.6610 O   0  0  0  0  0  0  0  0  0  0  0  0
   62.4730   45.8580   37.5650 C   0  0  0  0  0  0  0  0  0  0  0  0
   61.0260   43.6290   32.1140 C   0  0  0  0  0  0  0  0  0  0  0  0
   62.1800   45.1810   35.0910 C   0  0  0  0  0  0  0  0  0  0  0  0
   60.8410   45.1160   34.3160 C   0  0  0  0  0  0  0  0  0  0  0  0
   59.5400   43.0100   34.0860 S   0  0  0  0  0  0  0  0  0  0  0  0
   60.5350   44.0390   33.3530 C   0  0  0  0  0  0  0  0  0  0  0  0
   60.2150   42.5820   31.3720 C   0  0  0  0  0  0  0  0  0  0  0  0
   59.9710   45.8790   35.0480 C   0  0  0  0  0  0  0  0  0  0  0  0
  1  4  1  0
  3  2  1  0
  3  9  1  0
  4 11  1  0
  6 12  1  0
  6  5  1  0
  8  6  2  0
 11  3  1  0
 11  7  1  0
 12 17  1  0
 12 16  1  0
 13 10  1  0
 13  4  1  0
 14 16  1  0
 14 18  1  0
 14 13  1  0
 16 15  2  0
 18  1  1  0
M  END
$$$$

     RDKit          3D

 26 25  0  0  0  0  0  0  0  0999 V2000
   59.4230   44.0730   36.4330 C   0  0  0  0  0  0  0  0  0  0  0  0
   66.8360   38.6980   30.4800 C   0  0  0  0  0  0  0  0  0  0  0  0
   63.9300   42.6120   30.9740 C   0  0  0  0  0  0  0  0  0  0  0  0
   66.1100   41.4170   31.1390 C   0  0  0  0  0  0  0  0  0  0  0  0
   59.8400   45.8920   34.9300 O   0  0  0  0  0  0  0  0  0  0  0  0
   59.5620   45.1330   37.5000 N   0  0  0  0  0  0  0  0  0  0  0  0
   68.5170   39.2750   33.0090 C   0  0  0  0  0  0  0  0  0  0  0  0
   64.6640   41.2990   30.8560 C   0  0  0  0  0  0  0  0  0  0  0  0
   70.1140   39.6480   34.7810 N   0  0  0  0  0  0  0  0  0  0  0  0
   58.4700   44.6760   38.6640 C   0  0  0  0  0  0  0  0  0  0  0  0
   59.1080   43.8570   33.7450 C   0  0  0  0  0  0  0  0  0  0  0  0
   68.8410   39.6430   34.4130 C   0  0  0  0  0  0  0  0  0  0  0  0
   66.9270   40.1200   31.0850 C   0  0  0  0  0  0  0  0  0  0  0  0
   61.3940   42.4590   31.2130 C   0  0  0  0  0  0  0  0  0  0  0  0
   60.0190   42.5830   31.6520 C   0  0  0  0  0  0  0  0  0  0  0  0
   67.9480   40.1970   35.0910 O   0  0  0  0  0  0  0  0  0  0  0  0
   58.0200   44.3000   33.4710 O   0  0  0  0  0  0  0  0  0  0  0  0
   59.7910   44.4410   34.9860 C   0  0  0  0  0  0  0  0  0  0  0  0
   60.4390   46.1660   37.6860 C   0  0  0  0  0  0  0  0  0  0  0  0
   67.9120   40.4160   32.2070 C   0  0  0  0  0  0  0  0  0  0  0  0
   66.4490   38.9280   29.1270 O   0  0  0  0  0  0  0  0  0  0  0  0
   57.0020   44.8660   38.4120 C   0  0  0  0  0  0  0  0  0  0  0  0
   59.8680   43.0090   33.0380 O   0  0  0  0  0  0  0  0  0  0  0  0
   62.5150   42.4600   31.4450 C   0  0  0  0  0  0  0  0  0  0  0  0
   56.2920   43.7370   38.0280 C   0  0  0  0  0  0  0  0  0  0  0  0
   69.0350   38.2010   32.4040 N   0  0  0  0  0  0  0  0  0  0  0  0
  1  6  1  0
  3 24  1  0
  6 19  1  0
  6 10  1  0
  7 26  1  0
  7 12  1  0
  8  3  1  0
  8  4  1  0
 11 18  1  0
 12  9  1  0
 12 16  2  0
 13  2  1  0
 13  4  1  0
 13 20  1  0
 14 24  1  0
 14 15  1  0
 15 23  1  0
 17 11  2  0
 18  5  1  0
 18  1  1  0
 20  7  1  0
 21  2  1  0
 22 10  1  0
 23 11  1  0
 25 22  1  0
M  END
$$$$

     RDKit          3D

 15 15  0  0  0  0  0  0  0  0999 V2000
   64.8950   39.0890   26.2110 C   0  0  0  0  0  0  0  0  0  0  0  0
   68.3680   41.6390   28.6190 C   0  0  0  0  0  0  0  0  0  0  0  0
   64.9010   41.6110   26.4840 S   0  0  0  0  0  0  0  0  0  0  0  0
   68.2990   39.8990   26.9250 O   0  0  0  0  0  0  0  0  0  0  0  0
   69.7380   41.2360   28.7400 O   0  0  0  0  0  0  0  0  0  0  0  0
   65.0240   39.9360   27.2050 C   0  0  0  0  0  0  0  0  0  0  0  0
   63.6780   39.3430   28.0140 C   0  0  0  0  0  0  0  0  0  0  0  0
   65.5560   41.4910   28.9950 C   0  0  0  0  0  0  0  0  0  0  0  0
   67.8370   41.6420   30.0120 C   0  0  0  0  0  0  0  0  0  0  0  0
   66.0340   42.8820   30.7320 C   0  0  0  0  0  0  0  0  0  0  0  0
   66.3920   41.9080   30.1440 C   0  0  0  0  0  0  0  0  0  0  0  0
   66.1990   40.3310   28.2100 C   0  0  0  0  0  0  0  0  0  0  0  0
   68.4940   41.3370   31.0150 O   0  0  0  0  0  0  0  0  0  0  0  0
   66.1950   43.6770   31.6090 C   0  0  0  0  0  0  0  0  0  0  0  0
   67.5590   40.7970   27.6630 C   0  0  0  0  0  0  0  0  0  0  0  0
  1  6  1  0
  2  5  1  0
  2  9  1  0
  3  6  1  0
  6  7  1  0
  8 11  1  0
  9 11  1  0
  9 13  2  0
 10 14  2  0
 11 10  1  0
 12  6  1  0
 12  8  1  0
 15  4  1  0
 15 12  1  0
 15  2  1  0
M  END
$$$$

     RDKit          3D

 21 21  0  0  0  0  0  0  0  0999 V2000
   65.2520   42.7910   30.3850 C   0  0  0  0  0  0  0  0  0  0  0  0
   69.1660   41.3510   30.5360 C   0  0  0  0  0  0  0  0  0  0  0  0
   61.2900   44.0780   29.8640 C   0  0  0  0  0  0  0  0  0  0  0  0
   66.4970   42.1930   30.4990 C   0  0  0  0  0  0  0  0  0  0  0  0
   68.2660   41.1250   31.7450 C   0  0  0  0  0  0  0  0  0  0  0  0
   62.2020   42.8560   32.3760 O   0  0  0  0  0  0  0  0  0  0  0  0
   59.4970   43.3500   31.3500 O   0  0  0  0  0  0  0  0  0  0  0  0
   60.8540   44.9440   30.9370 C   0  0  0  0  0  0  0  0  0  0  0  0
   65.9640   41.2820   32.7230 C   0  0  0  0  0  0  0  0  0  0  0  0
   57.6460   45.9740   33.7220 O   0  0  0  0  0  0  0  0  0  0  0  0
   64.6540   41.7100   32.4810 C   0  0  0  0  0  0  0  0  0  0  0  0
   60.8920   44.0060   28.5090 C   0  0  0  0  0  0  0  0  0  0  0  0
   62.6330   43.7790   30.3490 N   0  0  0  0  0  0  0  0  0  0  0  0
   66.8690   41.4960   31.6590 C   0  0  0  0  0  0  0  0  0  0  0  0
   59.9660   45.8960   32.8690 C   0  0  0  0  0  0  0  0  0  0  0  0
   64.2820   42.4430   31.3090 C   0  0  0  0  0  0  0  0  0  0  0  0
   63.0090   42.9900   31.3080 C   0  0  0  0  0  0  0  0  0  0  0  0
   58.9840   45.5940   34.0900 S   0  0  0  0  0  0  0  0  0  0  0  0
   59.6810   44.7000   31.7770 C   0  0  0  0  0  0  0  0  0  0  0  0
   59.3550   46.2640   35.2450 O   0  0  0  0  0  0  0  0  0  0  0  0
   59.1830   44.0570   34.4240 N   0  0  0  0  0  0  0  0  0  0  0  0
  1  4  2  0
  1 16  1  0
  2  5  1  0
  3 12  1  0
  3 13  1  0
  3  8  1  0
  4 14  1  0
  7 19  1  0
  8 19  2  3
 10 18  2  0
 11  9  1  0
 13 17  1  0
 14  5  1  0
 14  9  2  0
 15 18  1  0
 16 11  2  0
 17 16  1  0
 17  6  2  0
 18 21  1  0
 18 20  2  0
 19 15  1  0
M  END
$$$$

     RDKit          3D

 10  9  0  0  0  0  0  0  0  0999 V2000
   60.1070   42.0500   30.3160 C   0  0  0  0  0  0  0  0  0  0  0  0
   61.5550   43.1200   32.0500 N   0  0  0  0  0  0  0  0  0  0  0  0
   61.1980   45.1070   33.4860 N   0  0  0  0  0  0  0  0  0  0  0  0
   62.3910   42.5660   28.3130 C   0  0  0  0  0  0  0  0  0  0  0  0
   62.3660   43.1310   29.7290 C   0  0  0  0  0  0  0  0  0  0  0  0
   60.9990   44.4550   32.2220 C   0  0  0  0  0  0  0  0  0  0  0  0
   59.5620   44.7270   31.7720 C   0  0  0  0  0  0  0  0  0  0  0  0
   59.2200   41.1620   31.1530 C   0  0  0  0  0  0  0  0  0  0  0  0
   61.5830   42.3220   30.7850 C   0  0  0  0  0  0  0  0  0  0  0  0
   63.7460   43.0730   29.8730 O   0  0  0  0  0  0  0  0  0  0  0  0
  1  8  1  0
  2  6  1  0
  5  4  1  0
  5 10  1  0
  5  9  1  0
  6  7  1  0
  6  3  1  0
  9  1  1  0
  9  2  1  0
M  END
$$$$

     RDKit          3D

 16 15  0  0  0  0  0  0  0  0999 V2000
   69.2530   40.8090   32.0070 O   0  0  0  0  0  0  0  0  0  0  0  0
   68.6720   39.7260   28.7960 O   0  0  0  0  0  0  0  0  0  0  0  0
   61.6670   40.5230   30.2630 P   0  0  0  0  0  0  0  0  0  0  0  0
   62.2900   39.1750   29.9130 O   0  0  0  0  0  0  0  0  0  0  0  0
   61.8340   40.7540   31.7420 O   0  0  0  0  0  0  0  0  0  0  0  0
   60.3040   40.3320   29.7120 O   0  0  0  0  0  0  0  0  0  0  0  0
   62.6970   41.5940   29.0990 C   0  0  0  0  0  0  0  0  0  0  0  0
   66.7700   42.6930   30.3530 O   0  0  0  0  0  0  0  0  0  0  0  0
   69.1420   39.7980   31.0920 C   0  0  0  0  0  0  0  0  0  0  0  0
   66.2790   41.5680   30.2210 C   0  0  0  0  0  0  0  0  0  0  0  0
   66.9900   40.4730   30.0510 N   0  0  0  0  0  0  0  0  0  0  0  0
   70.1100   38.6250   31.2710 C   0  0  0  0  0  0  0  0  0  0  0  0
   64.4130   43.2290   29.1030 O   0  0  0  0  0  0  0  0  0  0  0  0
   68.2420   40.0510   29.9570 C   0  0  0  0  0  0  0  0  0  0  0  0
   63.9380   42.1260   29.6570 C   0  0  0  0  0  0  0  0  0  0  0  0
   64.8180   41.2920   30.5480 C   0  0  0  0  0  0  0  0  0  0  0  0
  2 14  2  0
  3  5  1  0
  4  3  1  0
  6  3  2  0
  7 15  1  0
  7  3  1  0
  9 12  1  0
  9  1  1  0
 10  8  2  0
 10 16  1  0
 11 10  1  0
 14 11  1  0
 14  9  1  0
 15 13  1  0
 15 16  1  0
M  END
$$$$

     RDKit          3D

  8  8  0  0  0  0  0  0  0  0999 V2000
   61.1230   38.6900   26.0220 O   0  0  0  0  0  0  0  0  0  0  0  0
   61.4100   42.1220   26.8860 C   0  0  0  0  0  0  0  0  0  0  0  0
   61.6610   39.7070   25.9670 C   0  0  0  0  0  0  0  0  0  0  0  0
   62.9660   40.2500   25.5420 O   0  0  0  0  0  0  0  0  0  0  0  0
   60.9030   40.6520   26.3180 C   0  0  0  0  0  0  0  0  0  0  0  0
   61.6110   43.2640   25.8740 C   0  0  0  0  0  0  0  0  0  0  0  0
   62.7290   42.0990   27.6430 C   0  0  0  0  0  0  0  0  0  0  0  0
   60.3190   41.2730   27.3510 C   0  0  0  0  0  0  0  0  0  0  0  0
  2  8  1  0
  2  7  1  0
  3  1  1  0
  4  3  2  0
  5  3  1  0
  5  2  1  0
  5  8  1  0
  6  2  1  0
M  END
$$$$

     RDKit          3D

 14 14  0  0  0  0  0  0  0  0999 V2000
   64.7450   41.2350   31.4130 N   0  0  0  0  0  0  0  0  0  0  0  0
   61.7310   46.6020   34.4820 C   0  0  0  0  0  0  0  0  0  0  0  0
   65.2700   41.5270   32.7300 C   0  0  0  0  0  0  0  0  0  0  0  0
   64.3030   45.0460   35.4290 C   0  0  0  0  0  0  0  0  0  0  0  0
   67.2690   40.3980   31.7070 C   0  0  0  0  0  0  0  0  0  0  0  0
   64.7870   42.6380   33.1470 C   0  0  0  0  0  0  0  0  0  0  0  0
   66.0730   40.1650   32.5700 C   0  0  0  0  0  0  0  0  0  0  0  0
   61.1480   46.5130   35.5380 C   0  0  0  0  0  0  0  0  0  0  0  0
   65.8270   39.3620   33.8500 C   0  0  0  0  0  0  0  0  0  0  0  0
   62.3380   45.2980   33.7510 C   0  0  0  0  0  0  0  0  0  0  0  0
   62.1780   45.7830   36.2720 N   0  0  0  0  0  0  0  0  0  0  0  0
   63.3420   44.2660   34.5000 C   0  0  0  0  0  0  0  0  0  0  0  0
   63.5320   46.3110   35.7810 C   0  0  0  0  0  0  0  0  0  0  0  0
   64.0570   43.4910   33.4040 C   0  0  0  0  0  0  0  0  0  0  0  0
  1  3  1  0
  2  8  1  0
  3  6  2  0
  4 13  1  0
  5  7  1  0
  6 14  2  0
  7  3  1  0
  7  9  1  0
  8 11  1  0
 10  2  1  0
 10 12  1  0
 12 14  1  0
 12  4  1  0
 13 11  1  0
M  END
$$$$

     RDKit          3D

 16 18  0  0  0  0  0  0  0  0999 V2000
   64.2390   43.6880   37.8550 C   0  0  0  0  0  0  0  0  0  0  0  0
   64.0900   44.1080   35.0840 S   0  0  0  0  0  0  0  0  0  0  0  0
   61.7310   43.2920   33.9850 C   0  0  0  0  0  0  0  0  0  0  0  0
   62.4640   42.8080   32.8280 C   0  0  0  0  0  0  0  0  0  0  0  0
   63.8720   44.5110   39.1250 C   0  0  0  0  0  0  0  0  0  0  0  0
   66.9730   42.2580   41.5570 C   0  0  0  0  0  0  0  0  0  0  0  0
   62.6320   43.5560   31.7710 F   0  0  0  0  0  0  0  0  0  0  0  0
   64.9390   42.9150   40.6440 C   0  0  0  0  0  0  0  0  0  0  0  0
   67.0660   43.3810   40.2420 C   0  0  0  0  0  0  0  0  0  0  0  0
   63.6640   43.6110   40.3420 C   0  0  0  0  0  0  0  0  0  0  0  0
   65.9260   42.8390   39.5040 C   0  0  0  0  0  0  0  0  0  0  0  0
   65.0840   42.8440   38.3450 N   0  0  0  0  0  0  0  0  0  0  0  0
   63.4850   43.5840   36.6060 C   0  0  0  0  0  0  0  0  0  0  0  0
   62.7540   41.6920   32.7390 F   0  0  0  0  0  0  0  0  0  0  0  0
   65.5230   42.3050   41.9080 C   0  0  0  0  0  0  0  0  0  0  0  0
   63.2190   43.4950   33.9740 C   0  0  0  0  0  0  0  0  0  0  0  0
  1 13  1  0
  1 12  1  0
  1  5  1  0
  2 13  1  0
  4 16  1  0
  4  3  1  0
  5 10  1  0
  6 15  1  0
  7  4  1  0
  8 10  1  0
  8 15  1  0
  9  6  1  0
 11  9  1  0
 11  8  1  0
 12 11  1  0
 14  4  1  0
 16  3  1  0
 16  2  1  0
M  END
$$$$

     RDKit          3D

 13 12  0  0  0  0  0  0  0  0999 V2000
   62.4340   46.5290   36.4660 O   0  0  0  0  0  0  0  0  0  0  0  0
   61.8080   41.3440   31.5960 C   0  0  0  0  0  0  0  0  0  0  0  0
   62.7900   40.3980   28.7350 C   0  0  0  0  0  0  0  0  0  0  0  0
   61.9390   44.9410   34.8120 O   0  0  0  0  0  0  0  0  0  0  0  0
   64.1510   46.0240   34.7820 O   0  0  0  0  0  0  0  0  0  0  0  0
   62.1060   43.6700   34.6700 C   0  0  0  0  0  0  0  0  0  0  0  0
   61.2250   42.6140   32.5050 C   0  0  0  0  0  0  0  0  0  0  0  0
   62.7050   46.3120   35.0390 S   0  0  0  0  0  0  0  0  0  0  0  0
   63.1420   40.0250   30.1470 C   0  0  0  0  0  0  0  0  0  0  0  0
   63.1140   41.1610   31.1670 C   0  0  0  0  0  0  0  0  0  0  0  0
   62.4190   43.1280   33.2570 C   0  0  0  0  0  0  0  0  0  0  0  0
   62.2610   47.4930   34.1790 O   0  0  0  0  0  0  0  0  0  0  0  0
   62.3760   41.8340   28.4890 C   0  0  0  0  0  0  0  0  0  0  0  0
  2  7  1  0
  3  9  2  3
  4  8  1  0
  5  8  1  0
  6  4  1  0
  7 11  1  0
  8  1  1  0
  9 10  1  0
 10  2  1  0
 11  6  1  0
 12  8  1  0
 13  3  1  0
M  END
$$$$
