
     RDKit          3D

  8  7  0  0  0  0  0  0  0  0999 V2000
   66.4700   40.9620   44.0800 C   0  0  0  0  0  0  0  0  0  0  0  0
   66.0510   43.1480   45.5280 O   0  0  0  0  0  0  0  0  0  0  0  0
   66.9820   44.3330   44.1090 N   0  0  0  0  0  0  0  0  0  0  0  0
   66.6090   43.3110   44.7600 C   0  0  0  0  0  0  0  0  0  0  0  0
   67.1290   39.6410   44.2390 C   0  0  0  0  0  0  0  0  0  0  0  0
   67.5550   42.0270   43.9560 C   0  0  0  0  0  0  0  0  0  0  0  0
   67.8840   38.7700   44.2150 O   0  0  0  0  0  0  0  0  0  0  0  0
   68.8370   41.1420   44.0760 C   0  0  0  0  0  0  0  0  0  0  0  0
  1  5  1  0
  3  4  1  0
  4  2  2  0
  6  8  1  0
  6  1  1  0
  6  4  1  0
  7  5  1  0
M  END
$$$$

     RDKit          3D

  2  1  0  0  0  0  0  0  0  0999 V2000
   77.7490   43.1550   34.2290 C   0  0  0  0  0  0  0  0  0  0  0  0
   76.8760   44.4120   34.3110 O   0  0  0  0  0  0  0  0  0  0  0  0
  1  2  1  0
M  END
$$$$

     RDKit          3D

 10 10  0  0  0  0  0  0  0  0999 V2000
   66.5210   42.6470   44.8780 O   0  0  0  0  0  0  0  0  0  0  0  0
   65.2570   42.7350   44.0260 C   0  0  0  0  0  0  0  0  0  0  0  0
   67.6210   42.8000   44.3950 C   0  0  0  0  0  0  0  0  0  0  0  0
   70.6250   42.1690   40.8450 N   0  0  0  0  0  0  0  0  0  0  0  0
   71.3490   41.0170   42.7990 C   0  0  0  0  0  0  0  0  0  0  0  0
   68.2880   41.6190   43.6160 C   0  0  0  0  0  0  0  0  0  0  0  0
   71.7470   41.4910   41.5810 C   0  0  0  0  0  0  0  0  0  0  0  0
   69.3990   42.2140   42.7940 C   0  0  0  0  0  0  0  0  0  0  0  0
   69.1730   40.9310   42.6650 O   0  0  0  0  0  0  0  0  0  0  0  0
   70.1460   42.7160   41.8850 C   0  0  0  0  0  0  0  0  0  0  0  0
  2  1  1  0
  3  1  1  0
  4  7  1  0
  4 10  1  0
  6  3  1  0
  7  5  1  0
  8 10  1  0
  8  6  1  0
  9  8  1  0
  9  6  1  0
M  END
$$$$

     RDKit          3D

  8  7  0  0  0  0  0  0  0  0999 V2000
   69.1630   42.4760   42.7480 C   0  0  0  0  0  0  0  0  0  0  0  0
   67.9950   38.9440   44.7220 O   0  0  0  0  0  0  0  0  0  0  0  0
   67.9530   42.5840   41.9390 O   0  0  0  0  0  0  0  0  0  0  0  0
   70.2290   42.3410   41.4990 C   0  0  0  0  0  0  0  0  0  0  0  0
   71.0760   41.2450   41.7530 O   0  0  0  0  0  0  0  0  0  0  0  0
   67.7760   40.1570   44.4010 C   0  0  0  0  0  0  0  0  0  0  0  0
   69.1880   40.1100   43.2450 C   0  0  0  0  0  0  0  0  0  0  0  0
   69.3400   41.5510   43.5180 O   0  0  0  0  0  0  0  0  0  0  0  0
  1  3  1  0
  1  8  1  0
  4  5  1  0
  4  1  1  0
  6  2  1  0
  7  8  1  0
  7  6  1  0
M  END
$$$$

     RDKit          3D

 14 14  0  0  0  0  0  0  0  0999 V2000
   65.5090   41.6460   44.7740 O   0  0  0  0  0  0  0  0  0  0  0  0
   67.2960   44.2010   49.5040 O   0  0  0  0  0  0  0  0  0  0  0  0
   69.0490   39.8230   43.2310 N   0  0  0  0  0  0  0  0  0  0  0  0
   67.6610   43.7670   48.4000 C   0  0  0  0  0  0  0  0  0  0  0  0
   68.7330   38.6900   43.9990 C   0  0  0  0  0  0  0  0  0  0  0  0
   67.1770   42.5360   46.3500 C   0  0  0  0  0  0  0  0  0  0  0  0
   66.4800   41.0630   45.7040 S   0  0  0  0  0  0  0  0  0  0  0  0
   65.8210   40.0390   46.4140 O   0  0  0  0  0  0  0  0  0  0  0  0
   65.3920   43.0570   48.0330 N   0  0  0  0  0  0  0  0  0  0  0  0
   66.7800   42.6930   47.8160 C   0  0  0  0  0  0  0  0  0  0  0  0
   67.9190   40.2650   45.2170 C   0  0  0  0  0  0  0  0  0  0  0  0
   68.5870   44.3410   47.7390 O   0  0  0  0  0  0  0  0  0  0  0  0
   68.9210   38.9410   45.2390 C   0  0  0  0  0  0  0  0  0  0  0  0
   68.4970   40.8950   43.9970 C   0  0  0  0  0  0  0  0  0  0  0  0
  1  7  2  0
  3 14  1  0
  3  5  1  0
  4  2  1  0
  5 13  1  0
  6 10  1  0
  7  6  1  0
  7  8  2  0
 10  9  1  0
 10  4  1  0
 11 13  1  0
 11  7  1  0
 12  4  2  0
 14 11  1  0
M  END
$$$$

     RDKit          3D

 14 15  0  0  0  0  0  0  0  0999 V2000
   72.1940   43.6680   41.9370 O   0  0  0  0  0  0  0  0  0  0  0  0
   71.2010   42.1460   40.7670 C   0  0  0  0  0  0  0  0  0  0  0  0
   69.0630   41.1800   41.8700 C   0  0  0  0  0  0  0  0  0  0  0  0
   69.9130   40.4920   39.8260 O   0  0  0  0  0  0  0  0  0  0  0  0
   68.0430   42.0690   42.4480 O   0  0  0  0  0  0  0  0  0  0  0  0
   68.1020   43.7640   45.7090 O   0  0  0  0  0  0  0  0  0  0  0  0
   70.2330   43.4380   42.8000 C   0  0  0  0  0  0  0  0  0  0  0  0
   71.3460   42.6000   42.2360 C   0  0  0  0  0  0  0  0  0  0  0  0
   69.0530   43.0320   44.9340 C   0  0  0  0  0  0  0  0  0  0  0  0
   69.8300   41.6700   40.6450 C   0  0  0  0  0  0  0  0  0  0  0  0
   69.4970   43.9070   43.7310 C   0  0  0  0  0  0  0  0  0  0  0  0
   67.2580   41.5970   43.5590 C   0  0  0  0  0  0  0  0  0  0  0  0
   66.9790   41.6330   45.0920 C   0  0  0  0  0  0  0  0  0  0  0  0
   67.7960   42.6310   45.5460 C   0  0  0  0  0  0  0  0  0  0  0  0
  2  8  1  0
  3  5  1  0
  5 12  1  0
  7 11  1  0
  8  1  1  0
  8  7  1  0
  9 11  1  0
  9 14  1  0
  9  6  1  0
 10  4  1  0
 10  2  1  0
 10  3  1  0
 12 13  1  0
 14 13  1  0
 14  6  1  0
M  END
$$$$

     RDKit          3D

  8  7  0  0  0  0  0  0  0  0999 V2000
   69.1680   42.9750   41.9420 C   0  0  0  0  0  0  0  0  0  0  0  0
   67.4160   43.0060   43.1860 N   0  0  0  0  0  0  0  0  0  0  0  0
   65.4120   42.8900   43.4240 O   0  0  0  0  0  0  0  0  0  0  0  0
   68.7410   42.8410   40.6350 O   0  0  0  0  0  0  0  0  0  0  0  0
   66.4840   43.3840   42.9830 N   0  0  0  0  0  0  0  0  0  0  0  0
   68.7280   42.8060   43.3630 C   0  0  0  0  0  0  0  0  0  0  0  0
   70.6880   43.0960   41.9120 C   0  0  0  0  0  0  0  0  0  0  0  0
   71.4400   43.1170   42.6820 O   0  0  0  0  0  0  0  0  0  0  0  0
  1  4  1  0
  1  6  1  0
  2  6  1  0
  5  2  1  0
  5  3  1  0
  7  1  1  0
  7  8  2  0
M  END
$$$$

     RDKit          3D

 11 12  0  0  0  0  0  0  0  0999 V2000
   65.0600   41.4820   47.4690 C   0  0  0  0  0  0  0  0  0  0  0  0
   65.8900   42.1010   46.6230 C   0  0  0  0  0  0  0  0  0  0  0  0
   67.8140   41.6770   45.0560 C   0  0  0  0  0  0  0  0  0  0  0  0
   67.7530   41.4520   42.6320 C   0  0  0  0  0  0  0  0  0  0  0  0
   64.4730   42.3440   46.3030 C   0  0  0  0  0  0  0  0  0  0  0  0
   70.1780   43.8070   43.6710 C   0  0  0  0  0  0  0  0  0  0  0  0
   67.3590   41.8520   46.4630 C   0  0  0  0  0  0  0  0  0  0  0  0
   67.0990   41.2780   43.8620 C   0  0  0  0  0  0  0  0  0  0  0  0
   69.5890   42.5370   43.7450 C   0  0  0  0  0  0  0  0  0  0  0  0
   69.2550   41.5860   42.6380 C   0  0  0  0  0  0  0  0  0  0  0  0
   69.1810   41.8970   44.9750 N   0  0  0  0  0  0  0  0  0  0  0  0
  2  1  1  0
  3  7  1  0
  4 10  1  0
  4  8  1  0
  5  2  1  0
  5  1  1  0
  7  2  1  0
  8  3  1  0
  9  6  1  0
  9 11  1  0
 10  9  1  0
 11  3  1  0
M  END
$$$$

     RDKit          3D

 20 21  0  0  0  0  0  0  0  0999 V2000
   66.7290   45.5140   42.2360 C   0  0  0  0  0  0  0  0  0  0  0  0
   65.9350   46.3170   41.5700 C   0  0  0  0  0  0  0  0  0  0  0  0
   68.7890   40.6090   44.0420 C   0  0  0  0  0  0  0  0  0  0  0  0
   65.0230   48.2080   40.5390 C   0  0  0  0  0  0  0  0  0  0  0  0
   68.4010   39.3070   43.9090 C   0  0  0  0  0  0  0  0  0  0  0  0
   68.3040   43.6540   46.1600 C   0  0  0  0  0  0  0  0  0  0  0  0
   68.8610   40.9860   45.5260 C   0  0  0  0  0  0  0  0  0  0  0  0
   68.9790   44.0880   43.8870 C   0  0  0  0  0  0  0  0  0  0  0  0
   67.7340   42.6610   42.5910 C   0  0  0  0  0  0  0  0  0  0  0  0
   67.8010   41.6020   43.5570 C   0  0  0  0  0  0  0  0  0  0  0  0
   68.5050   42.4380   45.4390 C   0  0  0  0  0  0  0  0  0  0  0  0
   69.7860   40.3930   43.0750 C   0  0  0  0  0  0  0  0  0  0  0  0
   67.2690   38.5440   43.8450 C   0  0  0  0  0  0  0  0  0  0  0  0
   69.3840   42.8630   44.2330 O   0  0  0  0  0  0  0  0  0  0  0  0
   66.3600   44.3990   43.2530 C   0  0  0  0  0  0  0  0  0  0  0  0
   65.3330   47.5040   39.6490 C   0  0  0  0  0  0  0  0  0  0  0  0
   67.8820   45.8340   42.2450 O   0  0  0  0  0  0  0  0  0  0  0  0
   66.3440   46.2650   39.7750 S   0  0  0  0  0  0  0  0  0  0  0  0
   67.6600   43.7780   43.5260 N   0  0  0  0  0  0  0  0  0  0  0  0
   65.0310   47.1990   42.0420 C   0  0  0  0  0  0  0  0  0  0  0  0
  1 17  2  0
  1 15  1  0
  2 20  1  0
  2  1  1  0
  3 12  1  0
  3  7  1  0
  4 20  1  0
  5  3  1  0
  8 14  1  0
  9 19  1  0
  9 10  1  0
 10  3  1  0
 11  7  1  0
 11  6  1  0
 13  5  2  0
 14 11  1  0
 15 19  1  0
 16 18  1  0
 16  4  1  0
 18  2  1  0
 19  8  1  0
M  END
$$$$

     RDKit          3D

  1  0  0  0  0  0  0  0  0  0999 V2000
  185.7650  -47.7480   10.6190 O   0  0  0  0  0  0  0  0  0  0  0  0
M  END
$$$$

     RDKit          3D

  9 10  0  0  0  0  0  0  0  0999 V2000
   67.0740   43.0400   45.3760 C   0  0  0  0  0  0  0  0  0  0  0  0
   69.4780   42.1020   44.7280 N   0  0  0  0  0  0  0  0  0  0  0  0
   66.4430   40.6980   46.2290 C   0  0  0  0  0  0  0  0  0  0  0  0
   67.7340   40.5860   45.4630 C   0  0  0  0  0  0  0  0  0  0  0  0
   68.6990   43.2340   43.9370 P   0  0  0  0  0  0  0  0  0  0  0  0
   68.2680   42.6370   42.5910 O   0  0  0  0  0  0  0  0  0  0  0  0
   69.1510   44.6000   44.2300 O   0  0  0  0  0  0  0  0  0  0  0  0
   66.8570   41.6000   45.1960 C   0  0  0  0  0  0  0  0  0  0  0  0
   68.9660   40.7500   45.0240 C   0  0  0  0  0  0  0  0  0  0  0  0
  2  9  1  0
  4  9  1  0
  4  3  1  0
  5  6  2  0
  5  7  1  0
  5  2  1  0
  5  1  1  0
  8  1  1  0
  8  4  1  0
  8  3  1  0
M  END
$$$$

     RDKit          3D

  4  4  0  0  0  0  0  0  0  0999 V2000
   68.8920   34.0760   43.4880 C   0  0  0  0  0  0  0  0  0  0  0  0
   69.4990   35.2760   43.9880 O   0  0  0  0  0  0  0  0  0  0  0  0
   68.0100   33.3400   42.5170 O   0  0  0  0  0  0  0  0  0  0  0  0
   69.1200   33.9030   42.4020 C   0  0  0  0  0  0  0  0  0  0  0  0
  1  2  1  0
  3  1  1  0
  4  3  1  0
  4  1  1  0
M  END
$$$$

     RDKit          3D

 10 10  0  0  0  0  0  0  0  0999 V2000
   67.7960   40.6420   43.6200 C   0  0  0  0  0  0  0  0  0  0  0  0
   67.9550   41.8080   42.7060 C   0  0  0  0  0  0  0  0  0  0  0  0
   68.3900   40.2680   44.8560 N   0  0  0  0  0  0  0  0  0  0  0  0
   69.4070   40.8570   45.2680 O   0  0  0  0  0  0  0  0  0  0  0  0
   69.5250   43.9560   40.7390 N   0  0  0  0  0  0  0  0  0  0  0  0
   68.2900   44.3860   41.2020 C   0  0  0  0  0  0  0  0  0  0  0  0
   68.6520   42.9210   43.2310 O   0  0  0  0  0  0  0  0  0  0  0  0
   68.4020   38.8360   45.0170 O   0  0  0  0  0  0  0  0  0  0  0  0
   66.8400   40.7780   44.6420 C   0  0  0  0  0  0  0  0  0  0  0  0
   68.2430   44.2110   42.6810 C   0  0  0  0  0  0  0  0  0  0  0  0
  1  2  1  0
  1  9  1  0
  1  3  1  0
  2  7  1  0
  3  8  1  0
  3  4  1  0
  5  6  1  0
  6 10  1  0
  9  3  1  0
 10  7  1  0
M  END
$$$$

     RDKit          3D

  9 10  0  0  0  0  0  0  0  0999 V2000
   69.1020   43.7600   46.1910 C   0  0  0  0  0  0  0  0  0  0  0  0
   67.7520   43.5880   45.2900 C   0  0  0  0  0  0  0  0  0  0  0  0
   67.3240   42.8440   47.4840 C   0  0  0  0  0  0  0  0  0  0  0  0
   66.4580   42.9200   46.0270 S   0  0  0  0  0  0  0  0  0  0  0  0
   68.6200   43.5900   47.6210 C   0  0  0  0  0  0  0  0  0  0  0  0
   69.1090   44.8190   43.7460 C   0  0  0  0  0  0  0  0  0  0  0  0
   68.4720   42.8250   41.7870 C   0  0  0  0  0  0  0  0  0  0  0  0
   69.2680   43.8740   42.7210 C   0  0  0  0  0  0  0  0  0  0  0  0
   68.5720   43.8680   44.0320 N   0  0  0  0  0  0  0  0  0  0  0  0
  1  5  1  0
  2  4  1  0
  2  1  1  0
  3  5  1  0
  4  3  1  0
  8  7  1  0
  8  6  1  0
  8  9  1  0
  9  6  1  0
  9  2  1  0
M  END
$$$$

     RDKit          3D

 11 11  0  0  0  0  0  0  0  0999 V2000
   70.2550   43.4960   41.7770 O   0  0  0  0  0  0  0  0  0  0  0  0
   68.7110   43.1100   44.4630 O   0  0  0  0  0  0  0  0  0  0  0  0
   67.8730   40.2600   44.7400 C   0  0  0  0  0  0  0  0  0  0  0  0
   71.3340   42.8850   42.5170 C   0  0  0  0  0  0  0  0  0  0  0  0
   70.1640   40.8570   43.3670 O   0  0  0  0  0  0  0  0  0  0  0  0
   66.8530   41.0110   44.5990 O   0  0  0  0  0  0  0  0  0  0  0  0
   67.8720   39.1430   45.2540 O   0  0  0  0  0  0  0  0  0  0  0  0
   72.2180   43.9030   42.9550 O   0  0  0  0  0  0  0  0  0  0  0  0
   69.3140   40.8840   44.6640 C   0  0  0  0  0  0  0  0  0  0  0  0
   70.8150   42.0570   43.6840 C   0  0  0  0  0  0  0  0  0  0  0  0
   69.6040   42.3470   44.6480 C   0  0  0  0  0  0  0  0  0  0  0  0
  1  4  1  0
  3  7  1  0
  4  8  1  0
  5 10  1  0
  5  9  1  0
  6  3  2  0
  9  3  1  0
 10  4  1  0
 10 11  1  0
 11  2  1  0
 11  9  1  0
M  END
$$$$

     RDKit          3D

 15 16  0  0  0  0  0  0  0  0999 V2000
   64.8650   46.0300   41.8950 O   0  0  0  0  0  0  0  0  0  0  0  0
   70.5450   45.8980   42.7760 C   0  0  0  0  0  0  0  0  0  0  0  0
   67.7940   46.2930   40.7760 O   0  0  0  0  0  0  0  0  0  0  0  0
   68.9980   45.8930   40.8330 C   0  0  0  0  0  0  0  0  0  0  0  0
   67.4160   45.4060   42.9840 C   0  0  0  0  0  0  0  0  0  0  0  0
   67.0640   46.1310   41.9580 C   0  0  0  0  0  0  0  0  0  0  0  0
   68.4520   44.4140   42.6890 C   0  0  0  0  0  0  0  0  0  0  0  0
   65.7310   46.9140   41.9520 S   0  0  0  0  0  0  0  0  0  0  0  0
   68.6350   43.2500   42.9190 C   0  0  0  0  0  0  0  0  0  0  0  0
   70.2820   42.9580   43.4690 C   0  0  0  0  0  0  0  0  0  0  0  0
   69.4710   45.2020   41.9720 C   0  0  0  0  0  0  0  0  0  0  0  0
   65.5450   47.7480   43.1350 O   0  0  0  0  0  0  0  0  0  0  0  0
   69.7220   42.5330   44.8420 C   0  0  0  0  0  0  0  0  0  0  0  0
   70.4520   43.4870   44.3810 O   0  0  0  0  0  0  0  0  0  0  0  0
   65.0950   46.8600   40.6310 O   0  0  0  0  0  0  0  0  0  0  0  0
  1  8  1  0
  3  4  1  0
  3  6  1  0
  4 11  1  0
  6  5  1  0
  7  9  1  0
  7  5  1  0
  8  6  1  0
  8 12  1  0
  9 10  1  0
 10 14  1  0
 11  7  1  0
 11  2  1  0
 14 13  1  0
 15  1  1  0
 15  8  1  0
M  END
$$$$

     RDKit          3D

  1  0  0  0  0  0  0  0  0  0999 V2000
 -117.7590  171.5780   52.7840 C   0  0  0  0  0  0  0  0  0  0  0  0
M  END
$$$$

     RDKit          3D

  7  6  0  0  0  0  0  0  0  0999 V2000
   68.0140   43.9280   41.4190 O   0  0  0  0  0  0  0  0  0  0  0  0
   69.9590   40.0400   40.6190 O   0  0  0  0  0  0  0  0  0  0  0  0
   69.7410   41.3290   41.0750 C   0  0  0  0  0  0  0  0  0  0  0  0
   67.7330   43.5460   42.7610 C   0  0  0  0  0  0  0  0  0  0  0  0
   69.8920   42.2170   40.5670 O   0  0  0  0  0  0  0  0  0  0  0  0
   67.6820   42.0250   43.0640 C   0  0  0  0  0  0  0  0  0  0  0  0
   68.6480   41.3540   41.9280 C   0  0  0  0  0  0  0  0  0  0  0  0
  1  4  1  0
  2  3  1  0
  3  7  1  0
  4  6  1  0
  5  3  2  0
  7  6  1  0
M  END
$$$$

     RDKit          3D

  9  8  0  0  0  0  0  0  0  0999 V2000
   71.4670   42.3970   41.2860 O   0  0  0  0  0  0  0  0  0  0  0  0
   70.2600   43.2300   41.8250 C   0  0  0  0  0  0  0  0  0  0  0  0
   69.9090   42.7290   43.1870 C   0  0  0  0  0  0  0  0  0  0  0  0
   69.8480   40.8120   41.7710 O   0  0  0  0  0  0  0  0  0  0  0  0
   70.1920   40.0110   43.5680 C   0  0  0  0  0  0  0  0  0  0  0  0
   70.0450   40.2980   44.6470 O   0  0  0  0  0  0  0  0  0  0  0  0
   70.0080   41.2170   42.8240 C   0  0  0  0  0  0  0  0  0  0  0  0
   69.8380   38.8220   43.2230 N   0  0  0  0  0  0  0  0  0  0  0  0
   70.5880   44.7170   41.8190 C   0  0  0  0  0  0  0  0  0  0  0  0
  1  2  1  0
  2  9  1  0
  2  3  1  0
  4  7  2  0
  5  6  2  0
  7  3  1  0
  7  5  1  0
  8  5  1  0
M  END
$$$$

     RDKit          3D

  6  6  0  0  0  0  0  0  0  0999 V2000
   71.1060   42.9500   40.8440 C   0  0  0  0  0  0  0  0  0  0  0  0
   69.2030   44.1720   41.6980 C   0  0  0  0  0  0  0  0  0  0  0  0
   69.2690   41.8210   41.4730 N   0  0  0  0  0  0  0  0  0  0  0  0
   69.9180   43.2670   43.8480 C   0  0  0  0  0  0  0  0  0  0  0  0
   69.9570   42.2000   42.8010 C   0  0  0  0  0  0  0  0  0  0  0  0
   69.8130   42.8320   41.5620 N   0  0  0  0  0  0  0  0  0  0  0  0
  1  6  1  0
  3  6  1  0
  3  5  1  0
  5  4  1  0
  6  2  1  0
  6  5  1  0
M  END
$$$$
