
     RDKit          3D

 16 18  0  0  0  0  0  0  0  0999 V2000
   69.6980   43.1260   43.3130 C   0  0  0  0  0  0  0  0  0  0  0  0
   68.2800   42.4410   45.9290 C   0  0  0  0  0  0  0  0  0  0  0  0
   68.4960   43.5370   43.8460 N   0  0  0  0  0  0  0  0  0  0  0  0
   72.9790   43.7040   41.8180 C   0  0  0  0  0  0  0  0  0  0  0  0
   66.4150   41.0840   49.5690 C   0  0  0  0  0  0  0  0  0  0  0  0
   69.2370   43.0500   44.8080 C   0  0  0  0  0  0  0  0  0  0  0  0
   68.7840   41.4500   46.5930 C   0  0  0  0  0  0  0  0  0  0  0  0
   72.1470   42.6360   42.1540 C   0  0  0  0  0  0  0  0  0  0  0  0
   70.4310   44.0780   42.7690 N   0  0  0  0  0  0  0  0  0  0  0  0
   68.2280   40.9030   47.7310 C   0  0  0  0  0  0  0  0  0  0  0  0
   66.3620   42.3810   47.3800 C   0  0  0  0  0  0  0  0  0  0  0  0
   71.8460   43.7210   42.7530 C   0  0  0  0  0  0  0  0  0  0  0  0
   66.9820   42.8250   46.2390 C   0  0  0  0  0  0  0  0  0  0  0  0
   72.5850   44.1520   44.1420 C   0  0  0  0  0  0  0  0  0  0  0  0
   72.6170   45.3180   41.3100 C   0  0  0  0  0  0  0  0  0  0  0  0
   67.0040   41.4790   48.2160 C   0  0  0  0  0  0  0  0  0  0  0  0
  1  9  1  0
  1  3  1  0
  1  6  1  0
  2 13  2  0
  2  7  1  0
  3  6  1  0
  4 15  1  0
  4  8  1  0
  4 12  1  0
  6  2  1  0
  7 10  2  0
  8 12  1  0
 10 16  1  0
 11 16  2  0
 12  9  1  0
 12 14  1  0
 13 11  1  0
 16  5  1  0
M  END
$$$$

     RDKit          3D

 10 10  0  0  0  0  0  0  0  0999 V2000
   70.0100   43.6070   45.8490 S   0  0  0  0  0  0  0  0  0  0  0  0
   68.4750   42.8930   45.4590 C   0  0  0  0  0  0  0  0  0  0  0  0
   68.7880   42.1220   44.3310 C   0  0  0  0  0  0  0  0  0  0  0  0
   72.6720   41.4900   43.5300 O   0  0  0  0  0  0  0  0  0  0  0  0
   70.1370   42.0880   43.9070 C   0  0  0  0  0  0  0  0  0  0  0  0
   67.7410   41.3080   43.5520 C   0  0  0  0  0  0  0  0  0  0  0  0
   72.2140   42.1240   44.7930 N   0  0  0  0  0  0  0  0  0  0  0  0
   71.0800   42.7970   44.6770 C   0  0  0  0  0  0  0  0  0  0  0  0
   71.9160   44.0740   44.4070 C   0  0  0  0  0  0  0  0  0  0  0  0
   67.8180   44.0350   45.9290 C   0  0  0  0  0  0  0  0  0  0  0  0
  2  1  1  0
  2 10  1  0
  3  2  1  0
  4  7  1  0
  5  3  2  0
  5  8  1  0
  6  3  1  0
  8  9  1  0
  8  7  1  0
  8  1  1  0
M  END
$$$$

     RDKit          3D

  7  6  0  0  0  0  0  0  0  0999 V2000
   71.2470   42.2090   43.3170 S   0  0  0  0  0  0  0  0  0  0  0  0
   68.5840   41.9610   42.4120 N   0  0  0  0  0  0  0  0  0  0  0  0
   67.9580   43.8740   44.0240 C   0  0  0  0  0  0  0  0  0  0  0  0
   72.3880   41.5470   44.4850 C   0  0  0  0  0  0  0  0  0  0  0  0
   69.3340   42.1590   43.5310 C   0  0  0  0  0  0  0  0  0  0  0  0
   68.9760   43.3680   43.9330 N   0  0  0  0  0  0  0  0  0  0  0  0
   69.5440   41.1870   45.1360 C   0  0  0  0  0  0  0  0  0  0  0  0
  1  5  1  0
  1  4  1  0
  2  5  1  0
  5  6  1  0
  5  7  1  0
  6  3  2  0
M  END
$$$$

     RDKit          3D

  9  8  0  0  0  0  0  0  0  0999 V2000
   69.6800   43.4970   45.8490 C   0  0  0  0  0  0  0  0  0  0  0  0
   72.2230   42.0770   42.1930 C   0  0  0  0  0  0  0  0  0  0  0  0
   70.8920   41.7740   44.0660 C   0  0  0  0  0  0  0  0  0  0  0  0
   71.3940   44.2490   43.0000 O   0  0  0  0  0  0  0  0  0  0  0  0
   71.5600   43.1250   43.3440 C   0  0  0  0  0  0  0  0  0  0  0  0
   69.6540   42.4610   44.7490 C   0  0  0  0  0  0  0  0  0  0  0  0
   70.8700   40.5290   43.2880 O   0  0  0  0  0  0  0  0  0  0  0  0
   68.5470   41.3800   44.9670 C   0  0  0  0  0  0  0  0  0  0  0  0
   72.4330   42.5700   40.7440 C   0  0  0  0  0  0  0  0  0  0  0  0
  2  5  1  0
  3  7  1  0
  3  6  1  0
  4  5  2  0
  5  3  1  0
  6  8  1  0
  6  1  1  0
  9  2  1  0
M  END
$$$$

     RDKit          3D

 21 22  0  0  0  0  0  0  0  0999 V2000
   69.2780   40.4230   44.1840 C   0  0  0  0  0  0  0  0  0  0  0  0
   72.9970   42.2570   39.4860 C   0  0  0  0  0  0  0  0  0  0  0  0
   71.8690   41.9800   42.3000 O   0  0  0  0  0  0  0  0  0  0  0  0
   68.7360   41.3650   45.2070 C   0  0  0  0  0  0  0  0  0  0  0  0
   67.4740   39.7790   46.3270 O   0  0  0  0  0  0  0  0  0  0  0  0
   71.1930   40.8590   40.4920 O   0  0  0  0  0  0  0  0  0  0  0  0
   68.6800   39.2240   43.9970 O   0  0  0  0  0  0  0  0  0  0  0  0
   67.1000   41.9050   47.0660 N   0  0  0  0  0  0  0  0  0  0  0  0
   70.4370   40.5850   43.4490 C   0  0  0  0  0  0  0  0  0  0  0  0
   71.0970   39.5450   42.7890 C   0  0  0  0  0  0  0  0  0  0  0  0
   67.6650   40.9810   46.1770 C   0  0  0  0  0  0  0  0  0  0  0  0
   70.9470   41.8550   43.3040 C   0  0  0  0  0  0  0  0  0  0  0  0
   71.0810   42.6950   44.5530 C   0  0  0  0  0  0  0  0  0  0  0  0
   69.4590   42.8820   45.3090 S   0  0  0  0  0  0  0  0  0  0  0  0
   66.7000   41.6600   48.4400 C   0  0  0  0  0  0  0  0  0  0  0  0
   70.8180   41.9190   38.5220 O   0  0  0  0  0  0  0  0  0  0  0  0
   71.6110   41.6820   39.6780 C   0  0  0  0  0  0  0  0  0  0  0  0
   65.6870   41.9220   50.9010 C   0  0  0  0  0  0  0  0  0  0  0  0
   71.0170   42.1510   41.1260 C   0  0  0  0  0  0  0  0  0  0  0  0
   65.6650   42.1370   49.2740 C   0  0  0  0  0  0  0  0  0  0  0  0
   71.1180   38.2610   42.1860 C   0  0  0  0  0  0  0  0  0  0  0  0
  1  4  2  0
  4 14  1  0
  4 11  1  0
  6 19  1  0
  7  1  1  0
  8 15  1  0
  9 10  1  0
  9  1  1  0
 11  5  2  0
 11  8  1  0
 12  3  1  0
 12  9  1  0
 12 13  1  0
 13 14  1  0
 15 20  2  3
 16 17  1  0
 17  2  1  0
 17  6  1  0
 17 19  1  0
 19  3  1  0
 20 18  1  0
 21 10  1  0
M  END
$$$$

     RDKit          3D

 11 11  0  0  0  0  0  0  0  0999 V2000
   70.4000   40.9710   46.0840 C   0  0  0  0  0  0  0  0  0  0  0  0
   67.9630   44.8120   42.8230 O   0  0  0  0  0  0  0  0  0  0  0  0
   69.6980   41.8100   43.8930 C   0  0  0  0  0  0  0  0  0  0  0  0
   68.3930   42.4310   45.7190 O   0  0  0  0  0  0  0  0  0  0  0  0
   67.8700   44.3410   44.4870 S   0  0  0  0  0  0  0  0  0  0  0  0
   71.3680   40.3210   45.4980 O   0  0  0  0  0  0  0  0  0  0  0  0
   70.5900   41.8090   47.0390 O   0  0  0  0  0  0  0  0  0  0  0  0
   67.6660   42.8420   44.4740 C   0  0  0  0  0  0  0  0  0  0  0  0
   68.6210   42.4670   43.3790 O   0  0  0  0  0  0  0  0  0  0  0  0
   69.3300   41.3700   45.3840 C   0  0  0  0  0  0  0  0  0  0  0  0
   69.1500   45.0550   45.1370 O   0  0  0  0  0  0  0  0  0  0  0  0
  1  7  1  0
  2  5  1  0
  3 10  1  0
  5 11  1  0
  6  1  2  0
  8  5  1  0
  8  4  1  0
  9  3  1  0
  9  8  1  0
 10  4  1  0
 10  1  1  0
M  END
$$$$

     RDKit          3D

 10 10  0  0  0  0  0  0  0  0999 V2000
   69.1020   41.0900   45.0710 C   0  0  0  0  0  0  0  0  0  0  0  0
   68.6550   43.5390   44.7770 C   0  0  0  0  0  0  0  0  0  0  0  0
   70.1410   45.1980   43.8270 C   0  0  0  0  0  0  0  0  0  0  0  0
   68.5760   42.4090   45.7300 C   0  0  0  0  0  0  0  0  0  0  0  0
   71.0860   46.1330   44.3130 C   0  0  0  0  0  0  0  0  0  0  0  0
   69.5470   42.6710   46.8420 O   0  0  0  0  0  0  0  0  0  0  0  0
   69.2140   41.3440   43.4670 S   0  0  0  0  0  0  0  0  0  0  0  0
   70.7710   42.6140   42.1200 O   0  0  0  0  0  0  0  0  0  0  0  0
   70.1520   43.7130   44.2390 C   0  0  0  0  0  0  0  0  0  0  0  0
   70.2140   42.7360   43.0980 C   0  0  0  0  0  0  0  0  0  0  0  0
  1  4  1  0
  2  4  1  0
  3  5  1  0
  4  6  1  0
  7  1  1  0
  8 10  2  0
  9  3  1  0
  9  2  1  0
 10  7  1  0
 10  9  1  0
M  END
$$$$

     RDKit          3D

 20 20  0  0  0  0  0  0  0  0999 V2000
   69.0550   43.6310   47.4500 C   0  0  0  0  0  0  0  0  0  0  0  0
   65.0640   41.6780   50.7090 S   0  0  0  0  0  0  0  0  0  0  0  0
   67.4490   42.4000   48.8900 C   0  0  0  0  0  0  0  0  0  0  0  0
   71.4780   42.7870   43.5020 C   0  0  0  0  0  0  0  0  0  0  0  0
   73.9920   41.1690   43.1780 C   0  0  0  0  0  0  0  0  0  0  0  0
   73.6150   42.6240   42.2810 C   0  0  0  0  0  0  0  0  0  0  0  0
   63.8790   41.8570   48.3540 C   0  0  0  0  0  0  0  0  0  0  0  0
   69.2940   41.4150   45.7090 C   0  0  0  0  0  0  0  0  0  0  0  0
   73.3170   40.8490   44.0940 O   0  0  0  0  0  0  0  0  0  0  0  0
   69.7930   43.7000   46.2920 C   0  0  0  0  0  0  0  0  0  0  0  0
   71.1810   42.5560   44.7270 N   0  0  0  0  0  0  0  0  0  0  0  0
   65.0740   42.2230   49.1100 C   0  0  0  0  0  0  0  0  0  0  0  0
   68.6530   41.2200   46.9560 C   0  0  0  0  0  0  0  0  0  0  0  0
   72.6930   43.4290   42.8320 C   0  0  0  0  0  0  0  0  0  0  0  0
   67.7050   43.1840   49.9360 O   0  0  0  0  0  0  0  0  0  0  0  0
   68.4220   42.3140   47.7550 C   0  0  0  0  0  0  0  0  0  0  0  0
   69.9450   42.6270   45.3940 C   0  0  0  0  0  0  0  0  0  0  0  0
   66.3460   41.6530   48.7310 N   0  0  0  0  0  0  0  0  0  0  0  0
   74.8640   40.4140   42.8120 O   0  0  0  0  0  0  0  0  0  0  0  0
   70.4460   42.7040   42.9200 O   0  0  0  0  0  0  0  0  0  0  0  0
  1 16  1  0
  3 15  2  0
  4 11  1  0
  5  9  1  0
  6 14  1  0
  6  5  1  0
  8 13  1  0
 10  1  2  0
 11 17  1  0
 12  7  1  0
 12  2  1  0
 13 16  2  0
 14  4  1  0
 16  3  1  0
 17  8  2  0
 17 10  1  0
 18  3  1  0
 18 12  1  0
 19  5  2  0
 20  4  2  0
M  END
$$$$

     RDKit          3D

  9  9  0  0  0  0  0  0  0  0999 V2000
   71.9000   42.1960   44.3260 C   0  0  0  0  0  0  0  0  0  0  0  0
   69.7560   42.6010   45.1400 C   0  0  0  0  0  0  0  0  0  0  0  0
   69.7510   42.6920   43.6000 C   0  0  0  0  0  0  0  0  0  0  0  0
   70.9980   42.9520   43.2480 N   0  0  0  0  0  0  0  0  0  0  0  0
   69.1870   41.7440   46.1810 O   0  0  0  0  0  0  0  0  0  0  0  0
   73.2550   41.9690   43.7900 C   0  0  0  0  0  0  0  0  0  0  0  0
   71.4940   42.9620   46.4080 O   0  0  0  0  0  0  0  0  0  0  0  0
   71.0480   41.9430   45.2670 C   0  0  0  0  0  0  0  0  0  0  0  0
   68.6580   43.4000   43.0220 O   0  0  0  0  0  0  0  0  0  0  0  0
  1  6  1  0
  1  8  1  0
  2  8  1  0
  2  5  1  0
  3  9  1  0
  3  2  1  0
  4  3  1  0
  4  1  1  0
  8  7  1  0
M  END
$$$$

     RDKit          3D

 13 14  0  0  0  0  0  0  0  0999 V2000
   67.3210   43.8090   47.1310 C   0  0  0  0  0  0  0  0  0  0  0  0
   67.1170   43.3640   48.5010 C   0  0  0  0  0  0  0  0  0  0  0  0
   66.2850   46.4530   47.1000 C   0  0  0  0  0  0  0  0  0  0  0  0
   69.6030   42.9950   45.4970 C   0  0  0  0  0  0  0  0  0  0  0  0
   68.1980   44.4920   44.7740 C   0  0  0  0  0  0  0  0  0  0  0  0
   68.8310   43.4930   44.1800 C   0  0  0  0  0  0  0  0  0  0  0  0
   69.0640   43.5510   42.7020 C   0  0  0  0  0  0  0  0  0  0  0  0
   67.1950   46.0020   43.8160 Cl  0  0  0  0  0  0  0  0  0  0  0  0
   67.3930   41.9970   48.3680 C   0  0  0  0  0  0  0  0  0  0  0  0
   67.8360   41.8100   47.0470 O   0  0  0  0  0  0  0  0  0  0  0  0
   67.3290   44.5970   45.9140 C   0  0  0  0  0  0  0  0  0  0  0  0
   68.6720   42.9040   46.7990 C   0  0  0  0  0  0  0  0  0  0  0  0
   66.8980   45.8990   46.1680 N   0  0  0  0  0  0  0  0  0  0  0  0
  1  2  1  0
  5  8  1  0
  5 11  1  0
  6  7  1  0
  6  5  1  0
  6  4  1  0
  9  2  1  0
 10  9  1  0
 11 13  1  0
 11  1  1  0
 12  4  1  0
 12 10  1  0
 12  1  1  0
 13  3  2  0
M  END
$$$$

     RDKit          3D

 23 26  0  0  0  0  0  0  0  0999 V2000
   69.0920   41.8940   45.4180 P   0  0  0  0  0  0  0  0  0  0  0  0
   71.3870   41.5520   44.2450 C   0  0  0  0  0  0  0  0  0  0  0  0
   67.7260   44.7510   46.6690 C   0  0  0  0  0  0  0  0  0  0  0  0
   66.3090   43.3990   50.3290 C   0  0  0  0  0  0  0  0  0  0  0  0
   70.4860   40.8410   45.1540 N   0  0  0  0  0  0  0  0  0  0  0  0
   68.8830   42.5600   46.8960 O   0  0  0  0  0  0  0  0  0  0  0  0
   66.8000   43.0920   48.2490 C   0  0  0  0  0  0  0  0  0  0  0  0
   66.1130   43.9160   51.6140 C   0  0  0  0  0  0  0  0  0  0  0  0
   66.5250   41.9940   50.2020 C   0  0  0  0  0  0  0  0  0  0  0  0
   66.0480   43.6780   53.9130 O   0  0  0  0  0  0  0  0  0  0  0  0
   66.2520   43.0660   52.7120 C   0  0  0  0  0  0  0  0  0  0  0  0
   72.4490   39.3820   44.9210 C   0  0  0  0  0  0  0  0  0  0  0  0
   68.7850   42.4780   44.4550 O   0  0  0  0  0  0  0  0  0  0  0  0
   66.7740   40.3780   48.3060 C   0  0  0  0  0  0  0  0  0  0  0  0
   66.8660   41.7210   48.8830 N   0  0  0  0  0  0  0  0  0  0  0  0
   66.2500   43.9880   49.0310 C   0  0  0  0  0  0  0  0  0  0  0  0
   66.2830   41.6650   52.5290 C   0  0  0  0  0  0  0  0  0  0  0  0
   67.5900   43.2690   46.9920 C   0  0  0  0  0  0  0  0  0  0  0  0
   71.3810   38.7110   44.2010 C   0  0  0  0  0  0  0  0  0  0  0  0
   71.9150   40.7510   45.4150 C   0  0  0  0  0  0  0  0  0  0  0  0
   66.2510   41.1370   51.2420 C   0  0  0  0  0  0  0  0  0  0  0  0
   68.3930   40.8390   46.2010 O   0  0  0  0  0  0  0  0  0  0  0  0
   70.1210   39.4670   44.6100 C   0  0  0  0  0  0  0  0  0  0  0  0
  1 13  2  0
  1 22  1  0
  1  6  1  0
  2  5  1  0
  4  8  1  0
  5 20  1  0
  5  1  1  0
  6 18  1  0
  7 18  1  0
  7 15  1  0
  7 16  1  0
  8 11  2  0
  9  4  2  0
  9 21  1  0
 11 10  1  0
 12 20  1  0
 14 15  1  0
 15  9  1  0
 16  4  1  0
 17 11  1  0
 18  3  1  0
 19 23  1  0
 19 12  1  0
 20  2  1  0
 21 17  2  0
 23  5  1  0
M  END
$$$$

     RDKit          3D

  5  4  0  0  0  0  0  0  0  0999 V2000
   68.8030   43.8440   43.5050 O   0  0  0  0  0  0  0  0  0  0  0  0
   70.6880   44.1200   42.5570 O   0  0  0  0  0  0  0  0  0  0  0  0
   69.8330   43.4270   42.9750 C   0  0  0  0  0  0  0  0  0  0  0  0
   70.5310   42.4310   43.1570 C   0  0  0  0  0  0  0  0  0  0  0  0
   69.8670   41.5470   44.2490 O   0  0  0  0  0  0  0  0  0  0  0  0
  2  3  2  0
  3  4  1  0
  3  1  1  0
  4  5  1  0
M  END
$$$$

     RDKit          3D

 12 12  0  0  0  0  0  0  0  0999 V2000
   71.3700   42.0370   42.5310 C   0  0  0  0  0  0  0  0  0  0  0  0
   70.4750   42.4480   43.0950 C   0  0  0  0  0  0  0  0  0  0  0  0
   69.8510   44.7650   42.5800 C   0  0  0  0  0  0  0  0  0  0  0  0
   71.1240   40.6610   44.5280 N   0  0  0  0  0  0  0  0  0  0  0  0
   68.8590   44.0190   43.2610 C   0  0  0  0  0  0  0  0  0  0  0  0
   71.5900   41.9470   44.2830 C   0  0  0  0  0  0  0  0  0  0  0  0
   68.3920   41.3570   45.4390 Br  0  0  0  0  0  0  0  0  0  0  0  0
   71.1220   41.6730   45.5790 C   0  0  0  0  0  0  0  0  0  0  0  0
   71.1740   44.6720   43.7280 S   0  0  0  0  0  0  0  0  0  0  0  0
   69.3710   42.7360   44.1120 C   0  0  0  0  0  0  0  0  0  0  0  0
   72.7030   42.0350   42.1830 O   0  0  0  0  0  0  0  0  0  0  0  0
   69.9650   43.4400   45.3430 C   0  0  0  0  0  0  0  0  0  0  0  0
  2  1  1  0
  2 10  1  0
  3  5  1  0
  3  9  1  0
  4  8  1  0
  5 10  1  0
  6  2  1  0
  6  4  1  0
  6  8  1  0
 10 12  1  0
 10  7  1  0
 11  1  1  0
M  END
$$$$

     RDKit          3D

 25 25  0  0  0  0  0  0  0  0999 V2000
   68.5370   42.2530   47.6680 C   0  0  0  0  0  0  0  0  0  0  0  0
   65.4960   42.9470   51.0870 C   0  0  0  0  0  0  0  0  0  0  0  0
   73.1010   39.9950   40.0120 C   0  0  0  0  0  0  0  0  0  0  0  0
   63.7790   43.8960   49.5490 O   0  0  0  0  0  0  0  0  0  0  0  0
   70.5850   42.7560   43.2280 C   0  0  0  0  0  0  0  0  0  0  0  0
   73.0700   42.3580   40.8100 C   0  0  0  0  0  0  0  0  0  0  0  0
   74.1880   41.6390   38.5370 C   0  0  0  0  0  0  0  0  0  0  0  0
   72.5870   41.8530   42.1810 C   0  0  0  0  0  0  0  0  0  0  0  0
   68.6120   45.1240   47.4160 O   0  0  0  0  0  0  0  0  0  0  0  0
   66.5110   43.8710   50.4900 N   0  0  0  0  0  0  0  0  0  0  0  0
   68.9400   42.6620   46.3050 N   0  0  0  0  0  0  0  0  0  0  0  0
   63.6250   45.2790   51.6180 O   0  0  0  0  0  0  0  0  0  0  0  0
   71.7350   41.2840   38.9210 C   0  0  0  0  0  0  0  0  0  0  0  0
   67.5560   44.6000   47.7890 C   0  0  0  0  0  0  0  0  0  0  0  0
   72.6500   41.0010   43.2280 C   0  0  0  0  0  0  0  0  0  0  0  0
   67.4420   43.1550   48.2460 C   0  0  0  0  0  0  0  0  0  0  0  0
   71.8570   43.0430   42.6950 C   0  0  0  0  0  0  0  0  0  0  0  0
   70.9240   42.3120   44.5250 C   0  0  0  0  0  0  0  0  0  0  0  0
   73.1390   41.4560   39.6220 C   0  0  0  0  0  0  0  0  0  0  0  0
   63.8560   43.7250   51.0350 P   0  0  0  0  0  0  0  0  0  0  0  0
   72.2280   41.4270   44.6490 C   0  0  0  0  0  0  0  0  0  0  0  0
   63.0570   42.8890   52.0400 O   0  0  0  0  0  0  0  0  0  0  0  0
   69.9060   41.7990   45.5540 C   0  0  0  0  0  0  0  0  0  0  0  0
   67.5620   43.1310   49.7380 C   0  0  0  0  0  0  0  0  0  0  0  0
   69.5320   40.5970   45.4260 O   0  0  0  0  0  0  0  0  0  0  0  0
  4 20  2  0
  5 18  1  0
  7 19  1  0
  8  6  1  0
  8 17  1  0
  8 15  1  0
  9 14  2  0
 10  2  1  0
 11  1  1  0
 13 19  1  0
 14 16  1  0
 15 21  1  0
 16  1  1  0
 16 24  1  0
 17  5  1  0
 18 21  1  0
 18 23  1  0
 19  3  1  0
 19  6  1  0
 20  2  1  0
 20 12  1  0
 20 22  1  0
 23 11  1  0
 24 10  1  0
 25 23  2  0
M  END
$$$$

     RDKit          3D

 21 22  0  0  0  0  0  0  0  0999 V2000
   69.0490   43.4650   41.9080 C   0  0  0  0  0  0  0  0  0  0  0  0
   68.4720   41.9520   45.2390 N   0  0  0  0  0  0  0  0  0  0  0  0
   69.2730   42.5770   43.0380 N   0  0  0  0  0  0  0  0  0  0  0  0
   71.7940   40.7830   41.3540 C   0  0  0  0  0  0  0  0  0  0  0  0
   70.5960   42.0410   42.9620 C   0  0  0  0  0  0  0  0  0  0  0  0
   68.7940   43.0690   44.3340 C   0  0  0  0  0  0  0  0  0  0  0  0
   67.9410   41.0020   48.1700 C   0  0  0  0  0  0  0  0  0  0  0  0
   71.1540   38.7410   42.5180 C   0  0  0  0  0  0  0  0  0  0  0  0
   68.1260   43.0880   47.2240 C   0  0  0  0  0  0  0  0  0  0  0  0
   65.1190   41.4890   48.9530 C   0  0  0  0  0  0  0  0  0  0  0  0
   65.1810   40.1900   49.7450 C   0  0  0  0  0  0  0  0  0  0  0  0
   68.7210   41.4970   49.2870 O   0  0  0  0  0  0  0  0  0  0  0  0
   64.8070   39.4160   50.5150 N   0  0  0  0  0  0  0  0  0  0  0  0
   71.9610   40.2960   42.7800 C   0  0  0  0  0  0  0  0  0  0  0  0
   68.6110   41.7990   46.8250 C   0  0  0  0  0  0  0  0  0  0  0  0
   70.0700   41.2270   46.9760 C   0  0  0  0  0  0  0  0  0  0  0  0
   70.8220   41.8060   41.4590 C   0  0  0  0  0  0  0  0  0  0  0  0
   66.5510   41.7420   48.4530 C   0  0  0  0  0  0  0  0  0  0  0  0
   66.7480   43.1560   47.8870 C   0  0  0  0  0  0  0  0  0  0  0  0
   73.2110   40.8690   40.9410 C   0  0  0  0  0  0  0  0  0  0  0  0
   70.9320   40.8200   43.7620 C   0  0  0  0  0  0  0  0  0  0  0  0
  1  3  1  0
  2 15  1  0
  3  6  1  0
  4 20  1  0
  4 17  1  0
  4 14  1  0
  5  3  1  0
  5 21  1  0
  6  2  1  0
  7 18  1  0
  7 12  1  0
  9 19  1  0
 10 11  1  0
 11 13  2  0
 14  8  1  0
 14 21  1  0
 15 16  1  0
 15  9  1  0
 15  7  1  0
 17  5  1  0
 18 10  1  0
 19 18  1  0
M  END
$$$$

     RDKit          3D

 16 17  0  0  0  0  0  0  0  0999 V2000
   69.6260   43.0540   43.8560 C   0  0  0  0  0  0  0  0  0  0  0  0
   71.4210   41.3460   44.9550 O   0  0  0  0  0  0  0  0  0  0  0  0
   73.7670   41.1670   45.3330 C   0  0  0  0  0  0  0  0  0  0  0  0
   67.3200   43.0810   43.0610 N   0  0  0  0  0  0  0  0  0  0  0  0
   73.8230   40.5840   43.9050 C   0  0  0  0  0  0  0  0  0  0  0  0
   68.6890   42.9660   42.8170 C   0  0  0  0  0  0  0  0  0  0  0  0
   71.4860   40.8710   43.6450 C   0  0  0  0  0  0  0  0  0  0  0  0
   72.7160   38.6110   42.3340 Cl  0  0  0  0  0  0  0  0  0  0  0  0
   70.7790   45.0860   43.7710 O   0  0  0  0  0  0  0  0  0  0  0  0
   69.6750   44.4790   44.2240 C   0  0  0  0  0  0  0  0  0  0  0  0
   72.8900   43.2820   46.2510 N   0  0  0  0  0  0  0  0  0  0  0  0
   69.3140   45.0510   45.2440 O   0  0  0  0  0  0  0  0  0  0  0  0
   72.5480   39.8130   43.5970 C   0  0  0  0  0  0  0  0  0  0  0  0
   71.4550   41.9850   42.7040 O   0  0  0  0  0  0  0  0  0  0  0  0
   72.5030   42.0290   45.5420 C   0  0  0  0  0  0  0  0  0  0  0  0
   69.7890   42.0650   43.2160 N   0  0  0  0  0  0  0  0  0  0  0  0
  1 10  1  0
  2 15  1  0
  3 15  1  0
  5  3  1  0
  6  4  1  0
  6 16  1  0
  6  1  1  0
  7 14  1  0
  7  2  1  0
  9 10  2  0
 10 12  1  0
 13  8  1  0
 13  7  1  0
 13  5  1  0
 14 16  1  0
 15 11  1  0
 16  1  1  0
M  END
$$$$

     RDKit          3D

  7  7  0  0  0  0  0  0  0  0999 V2000
   70.7370   42.4270   42.4260 C   0  0  0  0  0  0  0  0  0  0  0  0
   71.4250   45.1120   43.6930 N   0  0  0  0  0  0  0  0  0  0  0  0
   71.0790   43.8660   44.3330 C   0  0  0  0  0  0  0  0  0  0  0  0
   69.5580   43.8560   44.3870 C   0  0  0  0  0  0  0  0  0  0  0  0
   69.3270   44.5980   43.1490 C   0  0  0  0  0  0  0  0  0  0  0  0
   69.5940   43.0210   42.1290 C   0  0  0  0  0  0  0  0  0  0  0  0
   71.5150   42.5720   43.7560 C   0  0  0  0  0  0  0  0  0  0  0  0
  1  7  1  0
  2  3  1  0
  3  4  1  0
  5  4  1  0
  6  1  1  0
  6  5  1  0
  7  3  1  0
M  END
$$$$

     RDKit          3D

 14 13  0  0  0  0  0  0  0  0999 V2000
   70.0030   42.5430   44.0850 C   0  0  0  0  0  0  0  0  0  0  0  0
   70.5160   41.5740   47.4030 O   0  0  0  0  0  0  0  0  0  0  0  0
   70.4960   41.3820   44.7260 C   0  0  0  0  0  0  0  0  0  0  0  0
   71.5430   42.2610   42.0990 C   0  0  0  0  0  0  0  0  0  0  0  0
   70.2050   42.8970   47.0140 C   0  0  0  0  0  0  0  0  0  0  0  0
   71.2140   45.3970   45.8440 C   0  0  0  0  0  0  0  0  0  0  0  0
   70.7870   43.9110   45.8830 C   0  0  0  0  0  0  0  0  0  0  0  0
   69.3850   44.0640   47.4920 C   0  0  0  0  0  0  0  0  0  0  0  0
   69.7770   43.8440   42.0700 C   0  0  0  0  0  0  0  0  0  0  0  0
   70.3420   42.5100   42.5930 C   0  0  0  0  0  0  0  0  0  0  0  0
   69.5740   40.4550   44.7080 O   0  0  0  0  0  0  0  0  0  0  0  0
   69.9560   43.6410   44.7800 N   0  0  0  0  0  0  0  0  0  0  0  0
   69.6100   41.4790   41.9460 F   0  0  0  0  0  0  0  0  0  0  0  0
   71.7530   41.2330   45.1410 O   0  0  0  0  0  0  0  0  0  0  0  0
  1  3  1  0
  1 12  1  0
  3 14  1  0
  4 10  1  0
  5  2  1  0
  5  8  1  0
  7  6  1  0
  7  5  1  0
  9 10  1  0
 10  1  1  0
 11  3  2  0
 12  7  1  0
 13 10  1  0
M  END
$$$$

     RDKit          3D

 13 13  0  0  0  0  0  0  0  0999 V2000
   71.3480   43.5760   39.7720 O   0  0  0  0  0  0  0  0  0  0  0  0
   70.9110   42.2520   44.1240 C   0  0  0  0  0  0  0  0  0  0  0  0
   69.9000   41.5870   43.5480 O   0  0  0  0  0  0  0  0  0  0  0  0
   69.5100   42.8500   45.7460 C   0  0  0  0  0  0  0  0  0  0  0  0
   70.8280   43.2590   42.1640 C   0  0  0  0  0  0  0  0  0  0  0  0
   70.8940   42.4240   45.4920 C   0  0  0  0  0  0  0  0  0  0  0  0
   68.7630   41.6620   45.8970 O   0  0  0  0  0  0  0  0  0  0  0  0
   72.8710   41.7200   40.9410 C   0  0  0  0  0  0  0  0  0  0  0  0
   69.7670   44.2330   42.9300 S   0  0  0  0  0  0  0  0  0  0  0  0
   71.6500   43.0290   40.8910 C   0  0  0  0  0  0  0  0  0  0  0  0
   68.8460   43.4500   44.5400 C   0  0  0  0  0  0  0  0  0  0  0  0
   71.8310   42.4120   43.1970 C   0  0  0  0  0  0  0  0  0  0  0  0
   71.8450   43.4250   45.8310 O   0  0  0  0  0  0  0  0  0  0  0  0
  1 10  2  0
  2  3  1  0
  2  6  1  0
  4  7  1  0
  5 10  1  0
  5  9  1  0
  5 12  1  0
  6  4  1  0
  6 13  1  0
  9 11  1  0
 10  8  1  0
 11  4  1  0
 12  2  1  0
M  END
$$$$

     RDKit          3D

 21 23  0  0  0  0  0  0  0  0999 V2000
   71.4560   44.3490   43.2780 O   0  0  0  0  0  0  0  0  0  0  0  0
   64.1280   41.6960   49.6200 N   0  0  0  0  0  0  0  0  0  0  0  0
   70.6180   43.3830   43.6230 C   0  0  0  0  0  0  0  0  0  0  0  0
   72.5820   43.4310   41.4160 O   0  0  0  0  0  0  0  0  0  0  0  0
   71.3910   42.6410   41.3300 C   0  0  0  0  0  0  0  0  0  0  0  0
   70.5470   42.3370   42.5140 C   0  0  0  0  0  0  0  0  0  0  0  0
   65.3750   41.6520   49.2020 C   0  0  0  0  0  0  0  0  0  0  0  0
   69.1030   40.9690   43.8480 C   0  0  0  0  0  0  0  0  0  0  0  0
   66.6560   41.7330   49.9860 C   0  0  0  0  0  0  0  0  0  0  0  0
   73.4880   40.8680   39.9140 C   0  0  0  0  0  0  0  0  0  0  0  0
   68.6840   41.6320   46.2110 C   0  0  0  0  0  0  0  0  0  0  0  0
   72.0460   40.6810   40.2320 C   0  0  0  0  0  0  0  0  0  0  0  0
   67.1780   41.6440   46.2980 C   0  0  0  0  0  0  0  0  0  0  0  0
   71.1480   41.9060   40.1050 C   0  0  0  0  0  0  0  0  0  0  0  0
   65.6830   41.2440   47.9060 O   0  0  0  0  0  0  0  0  0  0  0  0
   67.6710   41.8380   48.8610 C   0  0  0  0  0  0  0  0  0  0  0  0
   69.5830   41.4400   42.6220 C   0  0  0  0  0  0  0  0  0  0  0  0
   69.8150   43.1150   44.7870 N   0  0  0  0  0  0  0  0  0  0  0  0
   66.7720   42.1690   47.6690 C   0  0  0  0  0  0  0  0  0  0  0  0
   72.1070   43.3720   44.2490 C   0  0  0  0  0  0  0  0  0  0  0  0
   69.0110   42.0080   44.7730 C   0  0  0  0  0  0  0  0  0  0  0  0
  1  3  1  0
  1 20  1  0
  3 20  1  0
  3 18  1  0
  5  4  1  0
  6  5  1  0
  6 17  1  0
  6  3  1  0
  7  2  2  0
  7  9  1  0
  8 21  1  0
 10 12  1  0
 11 13  1  0
 14 12  1  0
 14  5  1  0
 15  7  1  0
 16  9  1  0
 17  8  1  0
 19 13  1  0
 19 15  1  0
 19 16  1  0
 21 18  1  0
 21 11  1  0
M  END
$$$$
