
     RDKit          3D

 11 11  0  0  0  0  0  0  0  0999 V2000
   64.4700   39.9500   31.4390 C   0  0  0  0  0  0  0  0  0  0  0  0
   65.0010   39.0140   30.8290 O   0  0  0  0  0  0  0  0  0  0  0  0
   61.7760   41.6380   33.4580 C   0  0  0  0  0  0  0  0  0  0  0  0
   63.4040   39.9710   32.2600 C   0  0  0  0  0  0  0  0  0  0  0  0
   65.3670   41.1700   31.3040 N   0  0  0  0  0  0  0  0  0  0  0  0
   63.2100   41.2370   33.1220 C   0  0  0  0  0  0  0  0  0  0  0  0
   66.4750   43.4120   32.2290 C   0  0  0  0  0  0  0  0  0  0  0  0
   64.0890   42.4950   32.8220 C   0  0  0  0  0  0  0  0  0  0  0  0
   66.2090   44.7180   32.0430 C   0  0  0  0  0  0  0  0  0  0  0  0
   65.0550   45.2690   31.4150 O   0  0  0  0  0  0  0  0  0  0  0  0
   65.3630   42.5460   31.7880 C   0  0  0  0  0  0  0  0  0  0  0  0
  1  4  1  0
  2  1  2  0
  4  6  1  0
  5  1  1  0
  5 11  1  0
  6  3  1  0
  8  6  1  0
  9  7  1  0
 10  9  1  0
 11  7  1  0
 11  8  1  0
M  END
$$$$

     RDKit          3D

 17 17  0  0  0  0  0  0  0  0999 V2000
   63.9340   39.6210   32.1850 C   0  0  0  0  0  0  0  0  0  0  0  0
   63.0580   43.6720   39.3950 C   0  0  0  0  0  0  0  0  0  0  0  0
   66.2500   38.3540   28.3360 N   0  0  0  0  0  0  0  0  0  0  0  0
   65.0500   38.8500   28.7220 N   0  0  0  0  0  0  0  0  0  0  0  0
   61.5020   41.9620   38.5520 C   0  0  0  0  0  0  0  0  0  0  0  0
   64.8990   38.7950   26.6090 C   0  0  0  0  0  0  0  0  0  0  0  0
   66.0970   37.9730   27.0190 N   0  0  0  0  0  0  0  0  0  0  0  0
   63.4130   39.2110   30.7970 C   0  0  0  0  0  0  0  0  0  0  0  0
   64.6290   38.7460   30.0960 C   0  0  0  0  0  0  0  0  0  0  0  0
   62.5140   42.2020   36.2710 C   0  0  0  0  0  0  0  0  0  0  0  0
   64.3160   39.1680   27.7220 N   0  0  0  0  0  0  0  0  0  0  0  0
   62.7050   41.8950   34.9280 C   0  0  0  0  0  0  0  0  0  0  0  0
   61.6870   42.4810   39.6730 C   0  0  0  0  0  0  0  0  0  0  0  0
   66.6940   37.4490   25.7590 C   0  0  0  0  0  0  0  0  0  0  0  0
   62.8470   40.5040   32.7560 C   0  0  0  0  0  0  0  0  0  0  0  0
   63.1200   40.9310   34.1430 C   0  0  0  0  0  0  0  0  0  0  0  0
   62.1900   41.6270   37.2780 C   0  0  0  0  0  0  0  0  0  0  0  0
  1 15  1  0
  2 13  1  0
  3  4  1  0
  4  9  1  0
  5 13  1  0
  6  7  1  0
  6 11  1  0
  7  3  1  0
  8  1  1  0
  9  8  1  0
 10 17  1  0
 11  4  1  0
 12 10  1  0
 14  7  1  0
 15 16  1  0
 16 12  1  0
 17  5  1  0
M  END
$$$$

     RDKit          3D

  7  6  0  0  0  0  0  0  0  0999 V2000
   60.8600   45.3280   31.1280 O   0  0  0  0  0  0  0  0  0  0  0  0
   60.6180   43.2770   31.8680 C   0  0  0  0  0  0  0  0  0  0  0  0
   60.1240   42.6100   30.5960 C   0  0  0  0  0  0  0  0  0  0  0  0
   60.2050   41.3540   30.4590 O   0  0  0  0  0  0  0  0  0  0  0  0
   59.1400   43.1090   29.8430 O   0  0  0  0  0  0  0  0  0  0  0  0
   60.4990   45.2790   33.2390 O   0  0  0  0  0  0  0  0  0  0  0  0
   60.5880   44.7410   32.0840 C   0  0  0  0  0  0  0  0  0  0  0  0
  1  7  2  0
  2  7  1  0
  3  2  1  0
  4  3  1  0
  5  3  2  0
  7  6  1  0
M  END
$$$$

     RDKit          3D

  7  6  0  0  0  0  0  0  0  0999 V2000
   64.9400   41.4390   32.7080 C   0  0  0  0  0  0  0  0  0  0  0  0
   62.7360   40.5670   31.8830 C   0  0  0  0  0  0  0  0  0  0  0  0
   65.0670   43.6500   31.5940 O   0  0  0  0  0  0  0  0  0  0  0  0
   63.9860   41.2820   31.5040 C   0  0  0  0  0  0  0  0  0  0  0  0
   62.1570   39.5190   31.2130 O   0  0  0  0  0  0  0  0  0  0  0  0
   61.9960   41.0450   32.9360 O   0  0  0  0  0  0  0  0  0  0  0  0
   65.4420   42.8550   32.7110 C   0  0  0  0  0  0  0  0  0  0  0  0
  1  7  1  0
  2  6  1  0
  3  7  1  0
  4  2  1  0
  4  1  1  0
  5  2  2  0
M  END
$$$$

     RDKit          3D

 11 11  0  0  0  0  0  0  0  0999 V2000
   65.9110   42.0710   34.0300 O   0  0  0  0  0  0  0  0  0  0  0  0
   62.3780   40.2240   31.4730 N   0  0  0  0  0  0  0  0  0  0  0  0
   65.0070   43.4410   33.6250 N   0  0  0  0  0  0  0  0  0  0  0  0
   64.8570   40.8780   31.3020 C   0  0  0  0  0  0  0  0  0  0  0  0
   65.7100   42.7790   32.8620 C   0  0  0  0  0  0  0  0  0  0  0  0
   65.9390   41.9350   31.5820 C   0  0  0  0  0  0  0  0  0  0  0  0
   63.7890   40.1450   32.5540 S   0  0  0  0  0  0  0  0  0  0  0  0
   61.0140   40.8130   31.6630 C   0  0  0  0  0  0  0  0  0  0  0  0
   62.0270   39.3390   29.3660 C   0  0  0  0  0  0  0  0  0  0  0  0
   60.8370   38.5450   29.1840 O   0  0  0  0  0  0  0  0  0  0  0  0
   62.5480   38.8950   30.7460 C   0  0  0  0  0  0  0  0  0  0  0  0
  2  8  1  0
  2  7  1  0
  3  1  1  0
  4  6  1  0
  4  7  1  0
  5  3  2  0
  5  1  1  0
  6  5  1  0
  9 11  1  0
 10  9  1  0
 11  2  1  0
M  END
$$$$

     RDKit          3D

 11 11  0  0  0  0  0  0  0  0999 V2000
   65.9320   39.9350   29.5530 C   0  0  0  0  0  0  0  0  0  0  0  0
   65.1520   40.2980   30.8800 C   0  0  0  0  0  0  0  0  0  0  0  0
   62.6430   39.4360   29.2800 N   0  0  0  0  0  0  0  0  0  0  0  0
   58.5260   39.9150   30.5800 O   0  0  0  0  0  0  0  0  0  0  0  0
   64.0560   39.3080   31.3450 C   0  0  0  0  0  0  0  0  0  0  0  0
   61.1640   39.3460   29.2920 O   0  0  0  0  0  0  0  0  0  0  0  0
   67.2940   40.6740   29.6800 C   0  0  0  0  0  0  0  0  0  0  0  0
   60.7860   39.0130   30.5750 C   0  0  0  0  0  0  0  0  0  0  0  0
   59.3330   39.3450   30.8650 C   0  0  0  0  0  0  0  0  0  0  0  0
   61.6380   39.7670   31.4700 O   0  0  0  0  0  0  0  0  0  0  0  0
   62.8310   39.8940   30.6630 C   0  0  0  0  0  0  0  0  0  0  0  0
  1  7  1  0
  1  2  1  0
  2  5  1  0
  3  6  1  0
  3 11  1  0
  4  9  2  0
  6  8  1  0
  8  9  1  0
  8 10  1  0
 11  5  1  0
 11 10  1  0
M  END
$$$$

     RDKit          3D

 13 13  0  0  0  0  0  0  0  0999 V2000
   62.8300   43.4020   37.0150 C   0  0  0  0  0  0  0  0  0  0  0  0
   62.1240   41.4660   33.7620 C   0  0  0  0  0  0  0  0  0  0  0  0
   64.7000   45.0310   37.2340 O   0  0  0  0  0  0  0  0  0  0  0  0
   62.2020   40.7910   32.5580 C   0  0  0  0  0  0  0  0  0  0  0  0
   64.2300   43.4790   37.5010 C   0  0  0  0  0  0  0  0  0  0  0  0
   66.5410   43.2440   38.0440 O   0  0  0  0  0  0  0  0  0  0  0  0
   62.1250   42.8390   34.5410 C   0  0  0  0  0  0  0  0  0  0  0  0
   66.4510   42.6010   36.5740 C   0  0  0  0  0  0  0  0  0  0  0  0
   63.0790   43.0340   35.5990 C   0  0  0  0  0  0  0  0  0  0  0  0
   62.6020   39.3650   32.2080 C   0  0  0  0  0  0  0  0  0  0  0  0
   64.3330   43.1840   35.2620 O   0  0  0  0  0  0  0  0  0  0  0  0
   61.4380   43.7040   34.3030 O   0  0  0  0  0  0  0  0  0  0  0  0
   65.1580   43.3350   36.2890 C   0  0  0  0  0  0  0  0  0  0  0  0
  1  5  1  0
  2  7  1  0
  4  2  1  0
  5  3  1  0
  8  6  1  0
  9  7  1  0
  9  1  1  0
 10  4  1  0
 11  9  1  0
 11 13  1  0
 12  7  2  0
 13  8  1  0
 13  5  1  0
M  END
$$$$

     RDKit          3D

  6  5  0  0  0  0  0  0  0  0999 V2000
   61.5940   42.0880   32.7660 C   0  0  0  0  0  0  0  0  0  0  0  0
   62.7420   42.1630   33.0730 C   0  0  0  0  0  0  0  0  0  0  0  0
   65.0990   41.7820   33.1240 O   0  0  0  0  0  0  0  0  0  0  0  0
   63.9620   42.1880   33.9940 C   0  0  0  0  0  0  0  0  0  0  0  0
   60.5950   43.0500   32.9810 O   0  0  0  0  0  0  0  0  0  0  0  0
   63.2840   43.2520   32.2390 O   0  0  0  0  0  0  0  0  0  0  0  0
  1  5  1  0
  1  2  1  0
  2  4  1  0
  3  4  1  0
  6  2  1  0
M  END
$$$$

     RDKit          3D

 10 10  0  0  0  0  0  0  0  0999 V2000
   62.9600   39.4010   29.6430 N   0  0  0  0  0  0  0  0  0  0  0  0
   64.1210   39.1420   33.3970 O   0  0  0  0  0  0  0  0  0  0  0  0
   63.3190   39.2930   32.6850 C   0  0  0  0  0  0  0  0  0  0  0  0
   62.2160   39.9920   33.4560 C   0  0  0  0  0  0  0  0  0  0  0  0
   64.5710   39.2510   30.7080 N   0  0  0  0  0  0  0  0  0  0  0  0
   61.3650   39.5730   31.2920 C   0  0  0  0  0  0  0  0  0  0  0  0
   61.0530   38.6750   32.3930 C   0  0  0  0  0  0  0  0  0  0  0  0
   65.0160   38.6700   29.7190 C   0  0  0  0  0  0  0  0  0  0  0  0
   63.1500   39.4130   31.1330 C   0  0  0  0  0  0  0  0  0  0  0  0
   63.9020   38.6810   29.0210 N   0  0  0  0  0  0  0  0  0  0  0  0
  1  9  1  0
  3  2  2  0
  3  4  1  0
  5  9  1  0
  6  7  1  0
  8  5  1  0
  9  6  1  0
  9  3  1  0
 10  1  1  0
 10  8  1  0
M  END
$$$$

     RDKit          3D

 11 12  0  0  0  0  0  0  0  0999 V2000
   62.5110   41.2880   30.6250 N   0  0  0  0  0  0  0  0  0  0  0  0
   66.2350   41.2820   34.5230 O   0  0  0  0  0  0  0  0  0  0  0  0
   66.9000   42.5310   31.8770 O   0  0  0  0  0  0  0  0  0  0  0  0
   64.4690   41.8570   32.1590 C   0  0  0  0  0  0  0  0  0  0  0  0
   63.4810   39.4260   31.6350 C   0  0  0  0  0  0  0  0  0  0  0  0
   65.2740   41.5950   33.4430 C   0  0  0  0  0  0  0  0  0  0  0  0
   61.8810   40.1800   30.0710 N   0  0  0  0  0  0  0  0  0  0  0  0
   65.9840   41.5700   32.1320 C   0  0  0  0  0  0  0  0  0  0  0  0
   66.5170   40.8680   31.5580 O   0  0  0  0  0  0  0  0  0  0  0  0
   62.1620   39.1290   30.7580 C   0  0  0  0  0  0  0  0  0  0  0  0
   63.3950   40.8520   31.6460 C   0  0  0  0  0  0  0  0  0  0  0  0
  1 11  1  0
  3  8  1  0
  4  8  1  0
  4  6  1  0
  6  2  1  0
  7  1  1  0
  7 10  1  0
  8  6  1  0
  9  8  1  0
 10  5  1  0
 11  5  1  0
 11  4  1  0
M  END
$$$$

     RDKit          3D

  9  8  0  0  0  0  0  0  0  0999 V2000
   67.0130   41.6640   34.9040 C   0  0  0  0  0  0  0  0  0  0  0  0
   65.8700   41.2920   36.9850 C   0  0  0  0  0  0  0  0  0  0  0  0
   68.7590   42.9400   33.5920 P   0  0  0  0  0  0  0  0  0  0  0  0
   69.7820   43.9850   33.9430 O   0  0  0  0  0  0  0  0  0  0  0  0
   64.6090   41.6300   36.9360 O   0  0  0  0  0  0  0  0  0  0  0  0
   66.5620   40.9880   36.0790 O   0  0  0  0  0  0  0  0  0  0  0  0
   68.3850   41.8480   34.7980 O   0  0  0  0  0  0  0  0  0  0  0  0
   69.3420   42.2520   32.5310 O   0  0  0  0  0  0  0  0  0  0  0  0
   67.7310   43.3630   32.6350 O   0  0  0  0  0  0  0  0  0  0  0  0
  1  6  1  0
  3  4  1  0
  3  7  1  0
  5  2  1  0
  6  2  1  0
  7  1  1  0
  8  3  2  0
  9  3  1  0
M  END
$$$$

     RDKit          3D

 24 23  0  0  0  0  0  0  0  0999 V2000
   66.1240   40.0800   34.3930 C   0  0  0  0  0  0  0  0  0  0  0  0
   67.9480   39.8000   35.7840 C   0  0  0  0  0  0  0  0  0  0  0  0
   68.1530   40.1390   37.2360 C   0  0  0  0  0  0  0  0  0  0  0  0
   62.7710   38.4920   27.1370 C   0  0  0  0  0  0  0  0  0  0  0  0
   70.0210   41.2730   39.3200 C   0  0  0  0  0  0  0  0  0  0  0  0
   60.3930   37.7750   26.6930 C   0  0  0  0  0  0  0  0  0  0  0  0
   68.1690   41.6080   37.5250 C   0  0  0  0  0  0  0  0  0  0  0  0
   64.7410   40.2960   32.7360 C   0  0  0  0  0  0  0  0  0  0  0  0
   66.6530   40.5200   35.4930 C   0  0  0  0  0  0  0  0  0  0  0  0
   67.8890   42.3620   39.8340 C   0  0  0  0  0  0  0  0  0  0  0  0
   64.0410   40.9370   33.2970 O   0  0  0  0  0  0  0  0  0  0  0  0
   64.2230   38.5350   30.5030 C   0  0  0  0  0  0  0  0  0  0  0  0
   59.2210   39.0320   24.6050 C   0  0  0  0  0  0  0  0  0  0  0  0
   66.2180   40.1290   33.0630 N   0  0  0  0  0  0  0  0  0  0  0  0
   68.9780   42.1890   38.6670 C   0  0  0  0  0  0  0  0  0  0  0  0
   59.0540   39.5180   25.9740 C   0  0  0  0  0  0  0  0  0  0  0  0
   63.7010   38.9190   29.3780 C   0  0  0  0  0  0  0  0  0  0  0  0
   64.5370   39.3680   31.5990 C   0  0  0  0  0  0  0  0  0  0  0  0
   70.1000   39.9160   38.8230 C   0  0  0  0  0  0  0  0  0  0  0  0
   62.5960   38.9340   28.5560 C   0  0  0  0  0  0  0  0  0  0  0  0
   61.4610   38.4270   26.4190 C   0  0  0  0  0  0  0  0  0  0  0  0
   57.8160   40.4770   26.1250 C   0  0  0  0  0  0  0  0  0  0  0  0
   59.0870   38.5430   27.1420 C   0  0  0  0  0  0  0  0  0  0  0  0
   70.4570   39.5930   37.7160 O   0  0  0  0  0  0  0  0  0  0  0  0
  1  9  1  0
  2  3  1  0
  3  7  1  0
  4 20  1  0
  6 23  1  0
  7 15  1  0
  8 14  1  0
  8 11  2  0
  9  2  1  0
 12 18  2  0
 13 16  1  0
 14  1  1  0
 15  5  1  0
 15 10  1  0
 16 22  1  0
 16 23  1  0
 17 12  1  0
 18  8  2  0
 19  5  1  0
 20 17  1  0
 21  6  1  0
 21  4  1  0
 24 19  2  0
M  END
$$$$

     RDKit          3D

  1  0  0  0  0  0  0  0  0  0999 V2000
   -7.3580   73.4080   55.2570 C   0  0  0  0  0  0  0  0  0  0  0  0
M  END
$$$$

     RDKit          3D

 11 10  0  0  0  0  0  0  0  0999 V2000
   68.8640   39.9030   31.1220 C   0  0  0  0  0  0  0  0  0  0  0  0
   67.8150   44.2100   32.3780 C   0  0  0  0  0  0  0  0  0  0  0  0
   68.9410   35.5700   31.7570 C   0  0  0  0  0  0  0  0  0  0  0  0
   67.8100   41.9460   31.3800 C   0  0  0  0  0  0  0  0  0  0  0  0
   69.0040   41.0180   31.1700 C   0  0  0  0  0  0  0  0  0  0  0  0
   70.2740   36.1530   32.0430 C   0  0  0  0  0  0  0  0  0  0  0  0
   70.2700   38.0130   30.7750 C   0  0  0  0  0  0  0  0  0  0  0  0
   69.1570   38.5620   31.4460 C   0  0  0  0  0  0  0  0  0  0  0  0
   67.9560   42.7620   32.8380 C   0  0  0  0  0  0  0  0  0  0  0  0
   70.8230   36.9020   30.8610 C   0  0  0  0  0  0  0  0  0  0  0  0
   69.3040   42.8520   33.3230 O   0  0  0  0  0  0  0  0  0  0  0  0
  1  5  2  0
  1  8  2  0
  3  6  1  0
  4  9  1  0
  5  4  1  0
  7 10  1  0
  7  8  1  0
  9  2  1  0
  9 11  1  0
 10  6  1  0
M  END
$$$$

     RDKit          3D

 13 12  0  0  0  0  0  0  0  0999 V2000
   65.1380   39.5680   33.3240 C   0  0  0  0  0  0  0  0  0  0  0  0
   66.7330   42.5240   35.4420 C   0  0  0  0  0  0  0  0  0  0  0  0
   66.9160   44.1720   37.7800 C   0  0  0  0  0  0  0  0  0  0  0  0
   64.7920   38.7090   30.9900 C   0  0  0  0  0  0  0  0  0  0  0  0
   68.2220   41.0460   36.6420 N   0  0  0  0  0  0  0  0  0  0  0  0
   68.0370   43.2540   37.5340 C   0  0  0  0  0  0  0  0  0  0  0  0
   68.0570   42.4470   36.2140 C   0  0  0  0  0  0  0  0  0  0  0  0
   65.2380   40.9910   33.9150 C   0  0  0  0  0  0  0  0  0  0  0  0
   66.1440   43.9810   39.3260 S   0  0  0  0  0  0  0  0  0  0  0  0
   64.8020   44.9100   39.0760 C   0  0  0  0  0  0  0  0  0  0  0  0
   64.8110   39.5400   31.8760 C   0  0  0  0  0  0  0  0  0  0  0  0
   69.0590   43.1050   35.2730 C   0  0  0  0  0  0  0  0  0  0  0  0
   66.5790   41.2860   34.6000 C   0  0  0  0  0  0  0  0  0  0  0  0
  1  8  1  0
  2  7  1  0
  3  9  1  0
  4 11  2  0
  6  3  1  0
  7 12  1  0
  7  5  1  0
  7  6  1  0
  8 13  1  0
 10  9  1  0
 11  1  1  0
 13  2  1  0
M  END
$$$$

     RDKit          3D

  6  5  0  0  0  0  0  0  0  0999 V2000
   69.0110   42.1370   31.5280 C   0  0  0  0  0  0  0  0  0  0  0  0
   68.0940   42.2810   33.6050 C   0  0  0  0  0  0  0  0  0  0  0  0
   67.7910   41.3630   30.8910 C   0  0  0  0  0  0  0  0  0  0  0  0
   68.8340   42.4500   32.8100 C   0  0  0  0  0  0  0  0  0  0  0  0
   67.6450   40.1650   31.8020 C   0  0  0  0  0  0  0  0  0  0  0  0
   67.5830   40.2230   33.0850 C   0  0  0  0  0  0  0  0  0  0  0  0
  1  4  1  0
  3  1  1  0
  3  5  1  0
  4  2  2  0
  5  6  2  0
M  END
$$$$

     RDKit          3D

 19 18  0  0  0  0  0  0  0  0999 V2000
   61.5030   40.9550   28.8630 C   0  0  0  0  0  0  0  0  0  0  0  0
   61.2500   41.0660   31.2520 O   0  0  0  0  0  0  0  0  0  0  0  0
   61.8090   39.6360   28.5330 C   0  0  0  0  0  0  0  0  0  0  0  0
   67.3480   39.4230   35.5900 O   0  0  0  0  0  0  0  0  0  0  0  0
   66.0570   41.9520   37.5250 O   0  0  0  0  0  0  0  0  0  0  0  0
   63.9580   39.7540   30.7650 C   0  0  0  0  0  0  0  0  0  0  0  0
   61.8440   42.1960   28.1340 O   0  0  0  0  0  0  0  0  0  0  0  0
   62.8310   39.2760   27.9250 O   0  0  0  0  0  0  0  0  0  0  0  0
   61.1600   38.5470   28.7980 O   0  0  0  0  0  0  0  0  0  0  0  0
   65.6840   41.0590   35.2720 C   0  0  0  0  0  0  0  0  0  0  0  0
   62.2090   41.1290   30.2380 C   0  0  0  0  0  0  0  0  0  0  0  0
   66.1900   41.6080   36.5260 C   0  0  0  0  0  0  0  0  0  0  0  0
   66.4610   39.9080   34.7910 C   0  0  0  0  0  0  0  0  0  0  0  0
   65.4590   39.5290   32.5370 C   0  0  0  0  0  0  0  0  0  0  0  0
   66.9870   38.1700   33.0680 O   0  0  0  0  0  0  0  0  0  0  0  0
   65.0750   39.0280   31.2630 C   0  0  0  0  0  0  0  0  0  0  0  0
   64.6670   41.4500   37.4330 C   0  0  0  0  0  0  0  0  0  0  0  0
   66.2340   39.1030   33.4920 C   0  0  0  0  0  0  0  0  0  0  0  0
   62.9020   39.7930   30.6380 C   0  0  0  0  0  0  0  0  0  0  0  0
  1  7  1  0
  1 11  1  0
  3  9  1  0
  3  1  1  0
  6 16  1  0
  8  3  2  0
 10 12  1  0
 11 19  1  0
 11  2  1  0
 12  5  1  0
 13 10  1  0
 13  4  1  0
 14 18  1  0
 15 18  2  0
 16 14  1  0
 17  5  1  0
 18 13  1  0
 19  6  2  3
M  END
$$$$

     RDKit          3D

 11 11  0  0  0  0  0  0  0  0999 V2000
   65.7600   42.0790   34.9530 O   0  0  0  0  0  0  0  0  0  0  0  0
   64.2450   41.5750   33.0750 C   0  0  0  0  0  0  0  0  0  0  0  0
   66.3010   39.5520   33.2250 C   0  0  0  0  0  0  0  0  0  0  0  0
   65.6470   40.8230   33.0500 C   0  0  0  0  0  0  0  0  0  0  0  0
   63.2020   42.8040   35.8310 N   0  0  0  0  0  0  0  0  0  0  0  0
   63.5880   41.4990   35.4260 C   0  0  0  0  0  0  0  0  0  0  0  0
   62.4520   40.8460   34.8880 O   0  0  0  0  0  0  0  0  0  0  0  0
   66.1140   38.6610   32.3430 O   0  0  0  0  0  0  0  0  0  0  0  0
   64.0680   41.6780   31.6980 O   0  0  0  0  0  0  0  0  0  0  0  0
   64.7990   41.1630   34.3860 C   0  0  0  0  0  0  0  0  0  0  0  0
   66.7280   39.3060   34.4400 O   0  0  0  0  0  0  0  0  0  0  0  0
  2  9  1  0
  2 10  1  0
  3 11  1  0
  4  2  1  0
  4  3  1  0
  4 10  1  0
  6  7  1  0
  6  5  1  0
  8  3  2  0
 10  1  1  0
 10  6  1  0
M  END
$$$$

     RDKit          3D

  8  7  0  0  0  0  0  0  0  0999 V2000
   63.5280   42.5170   29.6930 S   0  0  0  0  0  0  0  0  0  0  0  0
   64.8920   43.7380   31.6680 C   0  0  0  0  0  0  0  0  0  0  0  0
   65.0420   46.3110   31.6820 N   0  0  0  0  0  0  0  0  0  0  0  0
   64.5620   42.3250   31.1450 C   0  0  0  0  0  0  0  0  0  0  0  0
   64.3460   45.9050   32.8100 C   0  0  0  0  0  0  0  0  0  0  0  0
   63.8590   44.4820   32.4720 C   0  0  0  0  0  0  0  0  0  0  0  0
   66.2290   43.7150   32.2500 N   0  0  0  0  0  0  0  0  0  0  0  0
   65.3310   41.2740   31.4750 O   0  0  0  0  0  0  0  0  0  0  0  0
  1  4  1  0
  2  7  1  0
  2  6  1  0
  3  5  1  0
  4  8  2  0
  4  2  1  0
  6  5  1  0
M  END
$$$$

     RDKit          3D

  8  7  0  0  0  0  0  0  0  0999 V2000
   67.8520   41.9090   32.9390 C   0  0  0  0  0  0  0  0  0  0  0  0
   70.1830   41.1070   32.2540 O   0  0  0  0  0  0  0  0  0  0  0  0
   65.9130   39.5260   33.1840 O   0  0  0  0  0  0  0  0  0  0  0  0
   69.5130   40.3760   32.9890 C   0  0  0  0  0  0  0  0  0  0  0  0
   68.0370   40.4820   33.3180 C   0  0  0  0  0  0  0  0  0  0  0  0
   67.3100   38.4810   34.3820 O   0  0  0  0  0  0  0  0  0  0  0  0
   67.3100   39.1310   33.1110 C   0  0  0  0  0  0  0  0  0  0  0  0
   70.1850   39.5110   33.7430 O   0  0  0  0  0  0  0  0  0  0  0  0
  2  4  2  0
  4  5  1  0
  4  8  1  0
  5  1  1  0
  7  3  1  0
  7  5  1  0
  7  6  1  0
M  END
$$$$
