
     RDKit          3D

 21 21  0  0  0  0  0  0  0  0999 V2000
   70.7410   37.9950   46.6910 C   0  0  0  0  0  0  0  0  0  0  0  0
   69.4910   42.2560   46.7040 C   0  0  0  0  0  0  0  0  0  0  0  0
   64.6250   46.6490   44.3310 O   0  0  0  0  0  0  0  0  0  0  0  0
   70.4310   39.0660   49.2630 C   0  0  0  0  0  0  0  0  0  0  0  0
   68.3580   42.0450   46.2760 C   0  0  0  0  0  0  0  0  0  0  0  0
   67.4850   43.4010   45.8900 C   0  0  0  0  0  0  0  0  0  0  0  0
   66.1200   46.3230   41.3040 C   0  0  0  0  0  0  0  0  0  0  0  0
   71.1340   40.1380   47.3130 C   0  0  0  0  0  0  0  0  0  0  0  0
   67.7930   41.1650   45.6990 O   0  0  0  0  0  0  0  0  0  0  0  0
   69.5580   43.8800   46.6820 C   0  0  0  0  0  0  0  0  0  0  0  0
   65.5870   46.2000   46.3280 O   0  0  0  0  0  0  0  0  0  0  0  0
   65.5630   45.0630   41.9500 N   0  0  0  0  0  0  0  0  0  0  0  0
   65.9250   44.8440   44.2920 C   0  0  0  0  0  0  0  0  0  0  0  0
   70.9860   38.7480   47.7780 N   0  0  0  0  0  0  0  0  0  0  0  0
   68.0680   44.2700   46.7630 C   0  0  0  0  0  0  0  0  0  0  0  0
   66.3720   43.5490   44.8730 C   0  0  0  0  0  0  0  0  0  0  0  0
   69.7120   40.7340   47.0570 N   0  0  0  0  0  0  0  0  0  0  0  0
   66.0640   46.1070   40.2610 O   0  0  0  0  0  0  0  0  0  0  0  0
   65.3180   44.6110   43.0880 C   0  0  0  0  0  0  0  0  0  0  0  0
   66.4550   47.7870   41.5150 C   0  0  0  0  0  0  0  0  0  0  0  0
   65.3060   45.9590   45.0900 C   0  0  0  0  0  0  0  0  0  0  0  0
  1 14  1  0
  2 17  1  0
  3 21  2  0
  5  2  1  0
  6 16  1  0
  6  5  1  0
  6 15  1  0
  7 20  1  0
  7 12  1  0
  8 14  1  0
  9  5  2  0
 10  2  1  0
 10 15  1  0
 12 19  1  0
 13 19  1  0
 13 16  1  0
 13 21  1  0
 14  4  1  0
 17  8  1  0
 18  7  2  0
 21 11  1  0
M  END
$$$$

     RDKit          3D

 22 24  0  0  0  0  0  0  0  0999 V2000
   68.0910   44.2640   46.8420 O   0  0  0  0  0  0  0  0  0  0  0  0
   66.8160   45.8360   42.2800 C   0  0  0  0  0  0  0  0  0  0  0  0
   67.0570   45.9100   40.9370 C   0  0  0  0  0  0  0  0  0  0  0  0
   68.0190   45.5960   46.6910 C   0  0  0  0  0  0  0  0  0  0  0  0
   68.3080   42.6860   45.0690 C   0  0  0  0  0  0  0  0  0  0  0  0
   68.2250   47.6040   42.6480 C   0  0  0  0  0  0  0  0  0  0  0  0
   67.0820   45.8040   44.5630 N   0  0  0  0  0  0  0  0  0  0  0  0
   69.8530   41.0230   44.3820 N   0  0  0  0  0  0  0  0  0  0  0  0
   67.2840   46.5300   43.2260 C   0  0  0  0  0  0  0  0  0  0  0  0
   70.2210   40.6780   42.1000 O   0  0  0  0  0  0  0  0  0  0  0  0
   67.6200   46.5430   45.7050 C   0  0  0  0  0  0  0  0  0  0  0  0
   66.7140   47.1690   40.5370 C   0  0  0  0  0  0  0  0  0  0  0  0
   69.7640   40.5430   46.9840 S   0  0  0  0  0  0  0  0  0  0  0  0
   67.8800   42.0130   43.9020 O   0  0  0  0  0  0  0  0  0  0  0  0
   65.3980   44.5240   45.2920 O   0  0  0  0  0  0  0  0  0  0  0  0
   66.7130   44.4160   44.8160 C   0  0  0  0  0  0  0  0  0  0  0  0
   68.3520   40.1260   47.6540 C   0  0  0  0  0  0  0  0  0  0  0  0
   69.4510   41.8180   45.6130 C   0  0  0  0  0  0  0  0  0  0  0  0
   67.5080   43.4410   45.7720 C   0  0  0  0  0  0  0  0  0  0  0  0
   67.7290   48.1360   41.3140 C   0  0  0  0  0  0  0  0  0  0  0  0
   70.2450   41.2880   43.3260 C   0  0  0  0  0  0  0  0  0  0  0  0
   71.3490   40.9040   44.0900 C   0  0  0  0  0  0  0  0  0  0  0  0
  2  9  2  0
  3  2  1  0
  4  1  1  0
  5 14  1  0
  5 18  1  0
  6  9  1  0
  7 16  1  0
  7 11  1  0
  8 18  1  0
  9  7  1  0
 11  4  1  0
 12  3  1  0
 12 20  1  0
 13 17  1  0
 16 15  1  0
 16 19  1  0
 18 13  1  0
 19  5  1  0
 19  1  1  0
 20  6  1  0
 21 10  1  0
 21 22  1  0
 21  8  1  0
 22  8  1  0
M  END
$$$$

     RDKit          3D

 23 24  0  0  0  0  0  0  0  0999 V2000
   69.5100   40.7110   45.0990 O   0  0  0  0  0  0  0  0  0  0  0  0
   66.8860   42.8300   43.5920 C   0  0  0  0  0  0  0  0  0  0  0  0
   71.7300   39.2270   42.7780 C   0  0  0  0  0  0  0  0  0  0  0  0
   70.2590   40.4650   44.3090 C   0  0  0  0  0  0  0  0  0  0  0  0
   67.4450   47.7850   44.9700 C   0  0  0  0  0  0  0  0  0  0  0  0
   65.4550   46.3500   46.4100 Cl  0  0  0  0  0  0  0  0  0  0  0  0
   67.4180   45.5100   44.7770 C   0  0  0  0  0  0  0  0  0  0  0  0
   72.1500   41.4960   43.8980 C   0  0  0  0  0  0  0  0  0  0  0  0
   73.3410   41.4130   43.0270 O   0  0  0  0  0  0  0  0  0  0  0  0
   69.3920   43.5270   42.0510 C   0  0  0  0  0  0  0  0  0  0  0  0
   66.7640   48.9490   45.2540 C   0  0  0  0  0  0  0  0  0  0  0  0
   65.2490   44.7600   44.1870 C   0  0  0  0  0  0  0  0  0  0  0  0
   66.1320   45.4950   45.1320 C   0  0  0  0  0  0  0  0  0  0  0  0
   68.1850   43.1090   44.2670 C   0  0  0  0  0  0  0  0  0  0  0  0
   65.7420   43.5650   43.4060 C   0  0  0  0  0  0  0  0  0  0  0  0
   64.1560   45.2550   43.7960 O   0  0  0  0  0  0  0  0  0  0  0  0
   69.3410   43.8410   43.5510 C   0  0  0  0  0  0  0  0  0  0  0  0
   70.7250   43.6650   44.2110 C   0  0  0  0  0  0  0  0  0  0  0  0
   73.1290   38.9070   42.8450 O   0  0  0  0  0  0  0  0  0  0  0  0
   71.4410   40.4070   43.7790 C   0  0  0  0  0  0  0  0  0  0  0  0
   71.7300   42.9350   43.4850 C   0  0  0  0  0  0  0  0  0  0  0  0
   68.2770   44.6320   44.3410 C   0  0  0  0  0  0  0  0  0  0  0  0
   68.0310   46.8760   44.5380 N   0  0  0  0  0  0  0  0  0  0  0  0
  3 19  1  0
  3 20  1  0
  4  1  2  0
  5 11  1  0
  7 23  1  0
  7 13  1  0
  8  9  1  0
 12 13  1  0
 13  6  1  0
 14  2  1  0
 14 22  1  0
 15  2  1  0
 15 12  1  0
 16 12  2  0
 17 10  1  0
 17 18  1  0
 17 14  1  0
 17 22  1  0
 20  8  1  0
 20  4  2  0
 21  8  1  0
 21 18  1  0
 22  7  1  0
 23  5  1  0
M  END
$$$$

     RDKit          3D

 11 10  0  0  0  0  0  0  0  0999 V2000
   67.3900   44.1830   43.4120 C   0  0  0  0  0  0  0  0  0  0  0  0
   67.0360   47.0790   43.8680 O   0  0  0  0  0  0  0  0  0  0  0  0
   65.1790   44.7140   43.9290 O   0  0  0  0  0  0  0  0  0  0  0  0
   67.8110   43.2350   42.7730 O   0  0  0  0  0  0  0  0  0  0  0  0
   66.2450   44.8720   42.7850 C   0  0  0  0  0  0  0  0  0  0  0  0
   69.1630   43.9510   45.1220 C   0  0  0  0  0  0  0  0  0  0  0  0
   67.8530   44.6210   44.7940 C   0  0  0  0  0  0  0  0  0  0  0  0
   69.7100   43.0950   44.7180 O   0  0  0  0  0  0  0  0  0  0  0  0
   65.1390   46.9470   40.8700 O   0  0  0  0  0  0  0  0  0  0  0  0
   65.7500   47.2780   41.8770 C   0  0  0  0  0  0  0  0  0  0  0  0
   66.5820   46.3150   42.7670 C   0  0  0  0  0  0  0  0  0  0  0  0
  1  7  1  0
  4  1  2  0
  5  1  1  0
  5  3  1  0
  7  6  1  0
  8  6  2  0
  9 10  2  0
 10 11  1  0
 11  5  1  0
 11  2  1  0
M  END
$$$$

     RDKit          3D

 32 35  0  0  0  0  0  0  0  0999 V2000
   69.8130   42.4080   43.9340 C   0  0  0  0  0  0  0  0  0  0  0  0
   66.8370   46.2720   41.7460 C   0  0  0  0  0  0  0  0  0  0  0  0
   66.2380   47.5280   41.1530 C   0  0  0  0  0  0  0  0  0  0  0  0
   65.9560   49.5750   40.1300 C   0  0  0  0  0  0  0  0  0  0  0  0
   68.6650   40.8040   45.3470 C   0  0  0  0  0  0  0  0  0  0  0  0
   65.9780   44.6880   44.9230 C   0  0  0  0  0  0  0  0  0  0  0  0
   69.7750   41.2340   44.6570 C   0  0  0  0  0  0  0  0  0  0  0  0
   65.5430   46.1020   47.7780 C   0  0  0  0  0  0  0  0  0  0  0  0
   71.9910   39.0980   46.7170 C   0  0  0  0  0  0  0  0  0  0  0  0
   64.9250   46.9820   48.7190 C   0  0  0  0  0  0  0  0  0  0  0  0
   63.4020   47.8950   47.0380 C   0  0  0  0  0  0  0  0  0  0  0  0
   68.7600   47.4970   40.9730 O   0  0  0  0  0  0  0  0  0  0  0  0
   68.5860   48.2830   39.9830 C   0  0  0  0  0  0  0  0  0  0  0  0
   68.1480   46.2700   40.8690 C   0  0  0  0  0  0  0  0  0  0  0  0
   66.7980   45.0570   42.5330 C   0  0  0  0  0  0  0  0  0  0  0  0
   68.7210   43.2760   44.0590 C   0  0  0  0  0  0  0  0  0  0  0  0
   65.0740   46.1650   46.4420 C   0  0  0  0  0  0  0  0  0  0  0  0
   70.9050   39.5590   45.8050 C   0  0  0  0  0  0  0  0  0  0  0  0
   73.2500   39.9350   46.3070 C   0  0  0  0  0  0  0  0  0  0  0  0
   69.5700   47.9370   38.8710 C   0  0  0  0  0  0  0  0  0  0  0  0
   67.5490   41.5830   45.2250 C   0  0  0  0  0  0  0  0  0  0  0  0
   65.7220   44.6240   43.3740 C   0  0  0  0  0  0  0  0  0  0  0  0
   66.7250   48.7090   41.0440 C   0  0  0  0  0  0  0  0  0  0  0  0
   66.7270   43.6620   45.4620 N   0  0  0  0  0  0  0  0  0  0  0  0
   70.9030   40.6190   44.9160 O   0  0  0  0  0  0  0  0  0  0  0  0
   67.6690   42.8970   44.8750 C   0  0  0  0  0  0  0  0  0  0  0  0
   65.7400   45.6820   45.4540 N   0  0  0  0  0  0  0  0  0  0  0  0
   63.6750   47.5240   48.4010 C   0  0  0  0  0  0  0  0  0  0  0  0
   73.6010   40.8490   47.4030 N   0  0  0  0  0  0  0  0  0  0  0  0
   69.9260   38.4410   45.4170 C   0  0  0  0  0  0  0  0  0  0  0  0
   67.3810   49.1650   39.8580 C   0  0  0  0  0  0  0  0  0  0  0  0
   63.9040   46.9800   46.1100 C   0  0  0  0  0  0  0  0  0  0  0  0
  1 16  2  0
  1  7  1  0
  2 15  2  3
  3  2  1  0
  6 22  1  0
  6 27  1  0
  6 24  1  0
  7 25  1  0
  7  5  2  0
  8 10  1  0
 11 28  1  0
 13 20  1  0
 13 12  1  0
 14 12  1  0
 14  2  1  0
 15 22  1  0
 16 26  1  0
 17  8  2  0
 18 30  1  0
 18  9  1  0
 19  9  1  0
 19 29  1  0
 21  5  1  0
 23  4  1  0
 23  3  1  0
 25 18  1  0
 26 21  2  0
 26 24  1  0
 27 17  1  0
 28 10  1  0
 31 13  1  0
 31  4  1  0
 31 23  1  0
 32 17  1  0
 32 11  1  0
M  END
$$$$

     RDKit          3D

 14 14  0  0  0  0  0  0  0  0999 V2000
   65.9340   44.0600   44.1540 C   0  0  0  0  0  0  0  0  0  0  0  0
   68.7020   40.9600   43.0940 C   0  0  0  0  0  0  0  0  0  0  0  0
   66.7740   47.5030   44.0950 O   0  0  0  0  0  0  0  0  0  0  0  0
   69.3390   46.4090   43.6820 C   0  0  0  0  0  0  0  0  0  0  0  0
   66.9900   46.2520   44.3340 C   0  0  0  0  0  0  0  0  0  0  0  0
   68.5050   41.3680   44.4520 C   0  0  0  0  0  0  0  0  0  0  0  0
   68.1250   45.6160   44.1460 C   0  0  0  0  0  0  0  0  0  0  0  0
   70.4760   46.5650   43.5450 N   0  0  0  0  0  0  0  0  0  0  0  0
   68.3330   44.2700   44.2080 C   0  0  0  0  0  0  0  0  0  0  0  0
   69.8280   41.6140   45.1580 C   0  0  0  0  0  0  0  0  0  0  0  0
   67.2970   42.0640   44.0170 N   0  0  0  0  0  0  0  0  0  0  0  0
   67.1840   43.4200   44.2430 C   0  0  0  0  0  0  0  0  0  0  0  0
   65.8880   45.3960   44.5790 C   0  0  0  0  0  0  0  0  0  0  0  0
   68.1560   40.1520   45.2290 C   0  0  0  0  0  0  0  0  0  0  0  0
  1 12  2  0
  1 13  1  0
  2  6  1  0
  3  5  1  0
  4  7  1  0
  5 13  2  0
  6 10  1  0
  6 14  1  0
  7  9  2  0
  7  5  1  0
  8  4  2  0
  9 12  1  0
 11 12  1  0
 11  6  1  0
M  END
$$$$

     RDKit          3D

  9  9  0  0  0  0  0  0  0  0999 V2000
   69.6170   44.1190   44.7730 O   0  0  0  0  0  0  0  0  0  0  0  0
   70.4990   41.8270   40.7060 O   0  0  0  0  0  0  0  0  0  0  0  0
   70.4480   39.4290   42.1970 O   0  0  0  0  0  0  0  0  0  0  0  0
   72.7360   40.5490   42.2890 S   0  0  0  0  0  0  0  0  0  0  0  0
   69.6130   43.3890   43.4190 C   0  0  0  0  0  0  0  0  0  0  0  0
   70.9300   40.7840   42.1080 S   0  0  0  0  0  0  0  0  0  0  0  0
   68.7090   41.9550   43.2300 C   0  0  0  0  0  0  0  0  0  0  0  0
   67.8720   41.9340   44.4840 N   0  0  0  0  0  0  0  0  0  0  0  0
   70.1560   41.9730   43.3720 C   0  0  0  0  0  0  0  0  0  0  0  0
  2  6  2  0
  5  1  1  0
  6  3  2  0
  6  4  1  0
  7  9  1  0
  7  5  1  0
  7  8  1  0
  9  6  1  0
  9  5  1  0
M  END
$$$$

     RDKit          3D

 14 14  0  0  0  0  0  0  0  0999 V2000
   71.0730   43.5140   43.5670 C   0  0  0  0  0  0  0  0  0  0  0  0
   70.6000   41.4440   46.2320 C   0  0  0  0  0  0  0  0  0  0  0  0
   69.4150   41.3230   45.3530 O   0  0  0  0  0  0  0  0  0  0  0  0
   69.4520   41.8260   44.1790 C   0  0  0  0  0  0  0  0  0  0  0  0
   67.4540   43.1470   43.0430 O   0  0  0  0  0  0  0  0  0  0  0  0
   69.2590   38.8420   46.3880 C   0  0  0  0  0  0  0  0  0  0  0  0
   71.7610   43.3320   44.7170 C   0  0  0  0  0  0  0  0  0  0  0  0
   72.6450   42.4360   46.7640 O   0  0  0  0  0  0  0  0  0  0  0  0
   71.5590   42.4380   45.8650 C   0  0  0  0  0  0  0  0  0  0  0  0
   69.7860   42.7860   43.3520 C   0  0  0  0  0  0  0  0  0  0  0  0
   71.5810   44.2050   42.5820 O   0  0  0  0  0  0  0  0  0  0  0  0
   68.8280   44.1640   41.6710 O   0  0  0  0  0  0  0  0  0  0  0  0
   68.6800   43.3050   42.5930 C   0  0  0  0  0  0  0  0  0  0  0  0
   70.9290   39.8890   46.9530 S   0  0  0  0  0  0  0  0  0  0  0  0
  1  7  2  0
  2 14  1  0
  3  2  1  0
  4  3  1  0
  6 14  1  0
  7  9  1  0
  9  2  2  0
  9  8  1  0
 10  1  1  0
 10  4  2  0
 11  1  1  0
 12 13  2  0
 13  5  1  0
 13 10  1  0
M  END
$$$$

     RDKit          3D

 15 15  0  0  0  0  0  0  0  0999 V2000
   66.9660   42.1540   45.4100 C   0  0  0  0  0  0  0  0  0  0  0  0
   68.0560   48.3160   42.6370 C   0  0  0  0  0  0  0  0  0  0  0  0
   65.8180   45.7370   44.3340 O   0  0  0  0  0  0  0  0  0  0  0  0
   66.4080   43.4810   43.6180 C   0  0  0  0  0  0  0  0  0  0  0  0
   67.9150   45.8000   42.3940 O   0  0  0  0  0  0  0  0  0  0  0  0
   66.5500   44.5250   44.5840 C   0  0  0  0  0  0  0  0  0  0  0  0
   70.2860   48.8040   41.5190 C   0  0  0  0  0  0  0  0  0  0  0  0
   67.9930   44.7410   44.5450 C   0  0  0  0  0  0  0  0  0  0  0  0
   68.5030   46.8710   43.2230 C   0  0  0  0  0  0  0  0  0  0  0  0
   68.4280   45.4220   43.3580 C   0  0  0  0  0  0  0  0  0  0  0  0
   67.2380   42.3490   44.0110 C   0  0  0  0  0  0  0  0  0  0  0  0
   69.2750   44.9730   45.1110 O   0  0  0  0  0  0  0  0  0  0  0  0
   68.6080   42.5700   43.5780 O   0  0  0  0  0  0  0  0  0  0  0  0
   68.9360   48.1120   41.2060 C   0  0  0  0  0  0  0  0  0  0  0  0
   67.3780   49.5060   42.7190 C   0  0  0  0  0  0  0  0  0  0  0  0
  2 15  2  0
  4 11  1  0
  4  6  1  0
  5  9  1  0
  5 10  1  0
  6  3  1  0
  8  6  1  0
  8 12  1  0
  9  2  1  0
  9 10  1  0
 10  8  1  0
 11  1  1  0
 13 11  1  0
 14  7  1  0
 14  2  1  0
M  END
$$$$

     RDKit          3D

 27 29  0  0  0  0  0  0  0  0999 V2000
   67.3290   45.9370   41.1520 C   0  0  0  0  0  0  0  0  0  0  0  0
   60.8120   49.5040   48.0850 C   0  0  0  0  0  0  0  0  0  0  0  0
   68.5140   45.4050   40.7000 C   0  0  0  0  0  0  0  0  0  0  0  0
   62.9940   47.1970   45.8630 C   0  0  0  0  0  0  0  0  0  0  0  0
   62.1020   48.4580   46.3460 C   0  0  0  0  0  0  0  0  0  0  0  0
   72.5340   45.5470   40.6920 O   0  0  0  0  0  0  0  0  0  0  0  0
   66.2140   48.9670   40.2340 N   0  0  0  0  0  0  0  0  0  0  0  0
   66.6820   48.0070   40.8050 C   0  0  0  0  0  0  0  0  0  0  0  0
   61.9450   48.5180   47.8380 C   0  0  0  0  0  0  0  0  0  0  0  0
   67.3590   44.9270   43.3210 C   0  0  0  0  0  0  0  0  0  0  0  0
   65.7680   46.8570   39.4780 C   0  0  0  0  0  0  0  0  0  0  0  0
   64.9050   47.7330   39.2880 C   0  0  0  0  0  0  0  0  0  0  0  0
   66.2250   45.0360   46.5800 N   0  0  0  0  0  0  0  0  0  0  0  0
   71.4390   45.5410   40.7990 C   0  0  0  0  0  0  0  0  0  0  0  0
   66.8730   44.4010   45.4890 C   0  0  0  0  0  0  0  0  0  0  0  0
   68.5450   44.3700   42.8660 N   0  0  0  0  0  0  0  0  0  0  0  0
   65.4950   45.7720   44.6380 C   0  0  0  0  0  0  0  0  0  0  0  0
   65.1060   45.6340   45.9380 N   0  0  0  0  0  0  0  0  0  0  0  0
   69.3690   45.0960   41.9290 C   0  0  0  0  0  0  0  0  0  0  0  0
   60.7490   48.6610   46.0860 O   0  0  0  0  0  0  0  0  0  0  0  0
   63.9800   46.3120   46.6740 C   0  0  0  0  0  0  0  0  0  0  0  0
   66.5370   46.7820   40.4760 N   0  0  0  0  0  0  0  0  0  0  0  0
   71.5480   43.7910   42.5150 N   0  0  0  0  0  0  0  0  0  0  0  0
   70.6710   44.5780   41.6400 C   0  0  0  0  0  0  0  0  0  0  0  0
   60.1220   49.7530   46.7510 C   0  0  0  0  0  0  0  0  0  0  0  0
   66.6670   45.0310   44.5160 C   0  0  0  0  0  0  0  0  0  0  0  0
   66.8460   45.7140   42.3450 O   0  0  0  0  0  0  0  0  0  0  0  0
  1 22  1  0
  1 27  1  0
  3  1  1  0
  3 19  1  0
  4 21  1  0
  5  4  1  0
  5  9  1  0
  6 14  2  0
  7  8  2  0
  9  2  1  0
 11 22  1  0
 12 11  2  0
 14 24  1  0
 15 13  1  0
 16 10  2  0
 17 18  1  0
 18 13  1  0
 18 21  1  0
 19 24  1  0
 19 16  1  0
 20  5  1  0
 20 25  1  0
 22  8  1  0
 24 23  1  0
 25  2  1  0
 26 10  1  0
 26 17  1  0
 26 15  1  0
 27 10  1  0
M  END
$$$$

     RDKit          3D

 21 22  0  0  0  0  0  0  0  0999 V2000
   69.2910   41.6620   42.7090 C   0  0  0  0  0  0  0  0  0  0  0  0
   68.3960   41.5740   46.6990 C   0  0  0  0  0  0  0  0  0  0  0  0
   69.8080   40.9350   44.9120 C   0  0  0  0  0  0  0  0  0  0  0  0
   68.1620   43.2980   40.9430 C   0  0  0  0  0  0  0  0  0  0  0  0
   71.5880   42.4830   41.6660 C   0  0  0  0  0  0  0  0  0  0  0  0
   67.5340   41.6220   47.8370 O   0  0  0  0  0  0  0  0  0  0  0  0
   68.6710   41.5400   45.2810 N   0  0  0  0  0  0  0  0  0  0  0  0
   67.5480   44.7500   39.1320 C   0  0  0  0  0  0  0  0  0  0  0  0
   67.6980   42.4550   42.4390 S   0  0  0  0  0  0  0  0  0  0  0  0
   70.1840   41.8130   41.4080 C   0  0  0  0  0  0  0  0  0  0  0  0
   70.6810   40.1580   45.8180 C   0  0  0  0  0  0  0  0  0  0  0  0
   68.6480   44.4140   38.2260 O   0  0  0  0  0  0  0  0  0  0  0  0
   69.4490   42.7570   40.4420 C   0  0  0  0  0  0  0  0  0  0  0  0
   66.9110   41.8000   46.7560 C   0  0  0  0  0  0  0  0  0  0  0  0
   72.5930   42.3380   40.5050 C   0  0  0  0  0  0  0  0  0  0  0  0
   66.3370   45.1630   38.8370 N   0  0  0  0  0  0  0  0  0  0  0  0
   70.2010   41.2700   43.7680 N   0  0  0  0  0  0  0  0  0  0  0  0
   67.8660   44.7520   40.6140 C   0  0  0  0  0  0  0  0  0  0  0  0
   65.8440   46.0950   37.8200 C   0  0  0  0  0  0  0  0  0  0  0  0
   72.3140   43.2820   39.4280 C   0  0  0  0  0  0  0  0  0  0  0  0
   71.9980   39.7490   45.1870 C   0  0  0  0  0  0  0  0  0  0  0  0
  1 17  1  0
  2  7  1  0
  2 14  1  0
  2  6  1  0
  3  7  1  0
  3 11  1  0
  4 18  1  0
  4  9  1  0
  8 18  1  0
  9  1  1  0
 10  5  1  0
 10  1  1  0
 12  8  2  0
 13  4  1  0
 13 10  1  0
 14  6  1  0
 15  5  1  0
 16  8  1  0
 17  3  1  0
 19 16  1  0
 20 15  1  0
 21 11  1  0
M  END
$$$$

     RDKit          3D

  7  6  0  0  0  0  0  0  0  0999 V2000
   69.6930   42.4030   41.5250 C   0  0  0  0  0  0  0  0  0  0  0  0
   70.9040   40.5180   42.1500 O   0  0  0  0  0  0  0  0  0  0  0  0
   70.2570   43.6060   41.7770 C   0  0  0  0  0  0  0  0  0  0  0  0
   72.5120   45.9110   42.2980 C   0  0  0  0  0  0  0  0  0  0  0  0
   72.5750   44.5590   41.8800 C   0  0  0  0  0  0  0  0  0  0  0  0
   71.6570   43.6590   42.2500 C   0  0  0  0  0  0  0  0  0  0  0  0
   69.6130   41.0600   41.7820 C   0  0  0  0  0  0  0  0  0  0  0  0
  1  3  1  0
  1  7  1  0
  3  6  1  0
  5  6  1  0
  5  4  1  0
  7  2  1  0
M  END
$$$$

     RDKit          3D

 11 11  0  0  0  0  0  0  0  0999 V2000
   66.9500   47.3810   42.9700 O   0  0  0  0  0  0  0  0  0  0  0  0
   66.2470   45.9990   42.7410 C   0  0  0  0  0  0  0  0  0  0  0  0
   69.0970   43.2050   44.0860 C   0  0  0  0  0  0  0  0  0  0  0  0
   66.8430   45.3110   43.8430 C   0  0  0  0  0  0  0  0  0  0  0  0
   68.3920   42.1240   43.6820 O   0  0  0  0  0  0  0  0  0  0  0  0
   68.5970   44.4290   43.5710 C   0  0  0  0  0  0  0  0  0  0  0  0
   68.2390   45.4370   43.8590 O   0  0  0  0  0  0  0  0  0  0  0  0
   66.3530   45.9890   44.9660 O   0  0  0  0  0  0  0  0  0  0  0  0
   65.0530   45.6990   42.0030 C   0  0  0  0  0  0  0  0  0  0  0  0
   70.6350   43.2500   43.8780 C   0  0  0  0  0  0  0  0  0  0  0  0
   66.3020   45.4320   41.3070 C   0  0  0  0  0  0  0  0  0  0  0  0
  2  1  1  0
  2  4  1  0
  3 10  1  0
  4  7  1  0
  4  8  1  0
  5  3  1  0
  6  7  1  0
  6  3  1  0
  9  2  1  0
 11  9  1  0
 11  2  1  0
M  END
$$$$

     RDKit          3D

 21 23  0  0  0  0  0  0  0  0999 V2000
   68.0590   40.8360   47.3530 N   0  0  0  0  0  0  0  0  0  0  0  0
   66.2590   45.0670   43.9570 N   0  0  0  0  0  0  0  0  0  0  0  0
   69.9990   42.7910   43.5030 C   0  0  0  0  0  0  0  0  0  0  0  0
   67.8120   43.8760   43.0930 O   0  0  0  0  0  0  0  0  0  0  0  0
   70.8580   41.5510   43.1960 C   0  0  0  0  0  0  0  0  0  0  0  0
   70.1800   40.2160   47.4520 C   0  0  0  0  0  0  0  0  0  0  0  0
   68.8840   42.6600   44.4910 C   0  0  0  0  0  0  0  0  0  0  0  0
   71.6780   41.5770   44.7750 C   0  0  0  0  0  0  0  0  0  0  0  0
   66.9830   43.9850   44.0150 N   0  0  0  0  0  0  0  0  0  0  0  0
   69.3750   41.9840   45.7700 C   0  0  0  0  0  0  0  0  0  0  0  0
   66.1640   46.5530   41.8050 C   0  0  0  0  0  0  0  0  0  0  0  0
   66.4210   45.7580   42.8690 C   0  0  0  0  0  0  0  0  0  0  0  0
   65.1770   45.9670   40.8020 C   0  0  0  0  0  0  0  0  0  0  0  0
   70.7550   41.9910   45.6590 O   0  0  0  0  0  0  0  0  0  0  0  0
   68.6060   42.7200   43.2830 C   0  0  0  0  0  0  0  0  0  0  0  0
   69.3030   41.4100   47.2540 C   0  0  0  0  0  0  0  0  0  0  0  0
   69.6010   42.4070   48.1030 O   0  0  0  0  0  0  0  0  0  0  0  0
   72.1270   42.0060   42.4430 O   0  0  0  0  0  0  0  0  0  0  0  0
   66.3840   42.4160   45.7570 C   0  0  0  0  0  0  0  0  0  0  0  0
   66.8080   47.9790   41.1530 S   0  0  0  0  0  0  0  0  0  0  0  0
   67.0550   43.0650   44.9300 C   0  0  0  0  0  0  0  0  0  0  0  0
  2  9  1  0
  3  7  1  0
  4 15  1  0
  4  9  1  0
  5  3  1  0
  5  8  1  0
  7 21  1  0
  7 10  1  0
  8 14  1  0
  9 21  1  0
 10 16  1  0
 11 12  1  0
 12  2  1  0
 13 11  1  0
 14 10  1  0
 15  3  1  0
 15  7  1  0
 16  1  1  0
 16  6  1  0
 16 17  1  0
 18  5  1  0
 20 11  2  0
 21 19  2  0
M  END
$$$$

     RDKit          3D

  6  5  0  0  0  0  0  0  0  0999 V2000
   68.8340   42.3060   43.4830 C   0  0  0  0  0  0  0  0  0  0  0  0
   70.0840   42.3390   43.0270 F   0  0  0  0  0  0  0  0  0  0  0  0
   69.5290   40.5110   44.4420 O   0  0  0  0  0  0  0  0  0  0  0  0
   68.7610   42.6130   44.8490 F   0  0  0  0  0  0  0  0  0  0  0  0
   69.1060   41.4610   44.5050 C   0  0  0  0  0  0  0  0  0  0  0  0
   67.9240   42.5330   42.7790 F   0  0  0  0  0  0  0  0  0  0  0  0
  1  5  1  0
  2  1  1  0
  3  5  2  0
  5  4  1  0
  6  1  1  0
M  END
$$$$

     RDKit          3D

 12 12  0  0  0  0  0  0  0  0999 V2000
   67.4810   42.7110   45.5280 C   0  0  0  0  0  0  0  0  0  0  0  0
   69.7820   45.1030   41.1110 O   0  0  0  0  0  0  0  0  0  0  0  0
   69.6720   43.5540   42.7380 C   0  0  0  0  0  0  0  0  0  0  0  0
   67.7060   42.6940   41.0200 N   0  0  0  0  0  0  0  0  0  0  0  0
   69.3090   44.1860   41.8890 C   0  0  0  0  0  0  0  0  0  0  0  0
   69.4870   41.5880   44.2560 C   0  0  0  0  0  0  0  0  0  0  0  0
   71.8900   41.6830   44.0080 O   0  0  0  0  0  0  0  0  0  0  0  0
   71.1470   43.0880   42.5660 C   0  0  0  0  0  0  0  0  0  0  0  0
   72.0080   43.0380   41.4720 C   0  0  0  0  0  0  0  0  0  0  0  0
   70.7080   41.8270   43.2930 C   0  0  0  0  0  0  0  0  0  0  0  0
   68.8960   42.8310   41.7880 C   0  0  0  0  0  0  0  0  0  0  0  0
   68.5230   42.6700   44.7450 C   0  0  0  0  0  0  0  0  0  0  0  0
  3  8  1  0
  5  2  1  0
  5  3  1  0
  6 12  1  0
  8  9  1  0
  8 10  1  0
 10  7  1  0
 10  6  1  0
 11  4  1  0
 11  5  1  0
 11  3  1  0
 12  1  2  0
M  END
$$$$

     RDKit          3D

 12 12  0  0  0  0  0  0  0  0999 V2000
   69.7970   42.3150   41.7390 C   0  0  0  0  0  0  0  0  0  0  0  0
   72.6670   43.5730   43.1360 O   0  0  0  0  0  0  0  0  0  0  0  0
   69.1840   41.2300   44.4820 C   0  0  0  0  0  0  0  0  0  0  0  0
   69.7130   40.8380   45.5460 O   0  0  0  0  0  0  0  0  0  0  0  0
   72.6770   42.1760   43.3080 P   0  0  0  0  0  0  0  0  0  0  0  0
   67.4400   42.5950   43.5530 O   0  0  0  0  0  0  0  0  0  0  0  0
   68.6550   42.1590   43.8650 C   0  0  0  0  0  0  0  0  0  0  0  0
   73.5160   41.5500   44.3870 O   0  0  0  0  0  0  0  0  0  0  0  0
   68.7210   42.4040   41.2130 O   0  0  0  0  0  0  0  0  0  0  0  0
   73.3490   41.9600   41.9740 O   0  0  0  0  0  0  0  0  0  0  0  0
   71.3040   41.4090   43.4490 O   0  0  0  0  0  0  0  0  0  0  0  0
   69.9810   42.1180   43.2760 C   0  0  0  0  0  0  0  0  0  0  0  0
  2  5  1  0
  3  4  1  0
  5 11  1  0
  5  8  1  0
  7  6  1  0
  7  3  1  0
  9  1  2  0
 10  5  2  0
 12  1  1  0
 12 11  1  0
 12  7  1  0
 12  3  1  0
M  END
$$$$

     RDKit          3D

  9  9  0  0  0  0  0  0  0  0999 V2000
   67.0180   41.8870   44.0310 O   0  0  0  0  0  0  0  0  0  0  0  0
   71.1680   41.9910   42.0300 S   0  0  0  0  0  0  0  0  0  0  0  0
   69.9020   41.7300   44.5720 C   0  0  0  0  0  0  0  0  0  0  0  0
   70.8970   43.9580   43.7090 O   0  0  0  0  0  0  0  0  0  0  0  0
   67.8350   42.7680   45.2860 F   0  0  0  0  0  0  0  0  0  0  0  0
   70.9900   42.8180   43.9240 C   0  0  0  0  0  0  0  0  0  0  0  0
   68.1490   41.7880   44.7050 C   0  0  0  0  0  0  0  0  0  0  0  0
   72.2980   41.7680   43.6680 C   0  0  0  0  0  0  0  0  0  0  0  0
   68.0800   40.4850   45.2800 F   0  0  0  0  0  0  0  0  0  0  0  0
  1  7  1  0
  2  8  1  0
  2  6  1  0
  3  7  1  0
  6  4  1  0
  6  3  1  0
  7  9  1  0
  7  5  1  0
  8  6  1  0
M  END
$$$$

     RDKit          3D

 11 11  0  0  0  0  0  0  0  0999 V2000
   73.2700   43.1470   44.3670 N   0  0  0  0  0  0  0  0  0  0  0  0
   70.2620   43.0200   43.2490 C   0  0  0  0  0  0  0  0  0  0  0  0
   71.4700   43.7110   44.0260 C   0  0  0  0  0  0  0  0  0  0  0  0
   71.9910   44.3370   43.3700 O   0  0  0  0  0  0  0  0  0  0  0  0
   71.5650   39.8430   40.3360 I   0  0  0  0  0  0  0  0  0  0  0  0
   71.1870   42.1700   42.2650 C   0  0  0  0  0  0  0  0  0  0  0  0
   70.3510   41.6870   41.3600 C   0  0  0  0  0  0  0  0  0  0  0  0
   68.9250   43.3230   42.5880 C   0  0  0  0  0  0  0  0  0  0  0  0
   71.2490   44.0330   45.1020 O   0  0  0  0  0  0  0  0  0  0  0  0
   69.1320   41.1650   41.4570 N   0  0  0  0  0  0  0  0  0  0  0  0
   68.3670   42.2500   41.7810 C   0  0  0  0  0  0  0  0  0  0  0  0
  2  3  1  0
  3  1  1  0
  3  9  1  0
  4  3  1  0
  6  2  1  0
  7  5  1  0
  7 10  1  0
  7  6  1  0
  8  2  1  0
 10 11  1  0
 11  8  2  0
M  END
$$$$

     RDKit          3D

 14 13  0  0  0  0  0  0  0  0999 V2000
   68.7530   44.6600   43.2170 O   0  0  0  0  0  0  0  0  0  0  0  0
   65.6500   45.0610   41.7760 O   0  0  0  0  0  0  0  0  0  0  0  0
   67.1880   46.6980   41.3770 O   0  0  0  0  0  0  0  0  0  0  0  0
   69.0060   42.7420   41.9190 O   0  0  0  0  0  0  0  0  0  0  0  0
   67.6510   44.9540   43.3260 C   0  0  0  0  0  0  0  0  0  0  0  0
   72.1350   42.0240   44.1230 O   0  0  0  0  0  0  0  0  0  0  0  0
   67.2700   44.3400   44.7410 O   0  0  0  0  0  0  0  0  0  0  0  0
   70.8920   44.3220   44.4790 O   0  0  0  0  0  0  0  0  0  0  0  0
   71.6100   42.5770   43.0390 C   0  0  0  0  0  0  0  0  0  0  0  0
   71.5170   41.4870   42.4540 O   0  0  0  0  0  0  0  0  0  0  0  0
   66.6560   46.0610   42.6190 P   0  0  0  0  0  0  0  0  0  0  0  0
   69.5050   43.6260   42.6140 C   0  0  0  0  0  0  0  0  0  0  0  0
   70.7340   43.5870   43.2910 C   0  0  0  0  0  0  0  0  0  0  0  0
   65.8980   46.8530   43.7020 O   0  0  0  0  0  0  0  0  0  0  0  0
  1  5  1  0
  2 11  1  0
  3 11  2  0
  4 12  2  0
  5  7  2  0
  9 13  1  0
  9  6  1  0
 10  9  1  0
 11  5  1  0
 11 14  1  0
 12  1  1  0
 12 13  1  0
 13  8  1  0
M  END
$$$$
