
     RDKit          3D

  7  7  0  0  0  0  0  0  0  0999 V2000
   70.7750   40.9980   47.3890 C   0  0  0  0  0  0  0  0  0  0  0  0
   69.6350   39.0660   46.9800 C   0  0  0  0  0  0  0  0  0  0  0  0
   71.4390   39.9350   46.7330 C   0  0  0  0  0  0  0  0  0  0  0  0
   69.5490   40.5250   47.3500 O   0  0  0  0  0  0  0  0  0  0  0  0
   70.9660   38.9060   46.3020 C   0  0  0  0  0  0  0  0  0  0  0  0
   68.0870   38.9910   46.5520 C   0  0  0  0  0  0  0  0  0  0  0  0
   71.3290   42.1560   46.6120 C   0  0  0  0  0  0  0  0  0  0  0  0
  1  7  1  0
  2  6  1  0
  2  4  1  0
  3  1  1  0
  4  1  1  0
  5  3  1  0
  5  2  1  0
M  END
$$$$

     RDKit          3D

 13 14  0  0  0  0  0  0  0  0999 V2000
   70.0360   38.7520   47.1120 C   0  0  0  0  0  0  0  0  0  0  0  0
   71.5200   37.8400   46.4750 S   0  0  0  0  0  0  0  0  0  0  0  0
   68.9050   40.8510   44.1130 C   0  0  0  0  0  0  0  0  0  0  0  0
   71.3650   37.0990   45.2720 O   0  0  0  0  0  0  0  0  0  0  0  0
   67.8920   41.1070   46.3660 O   0  0  0  0  0  0  0  0  0  0  0  0
   67.7110   37.9570   47.5560 C   0  0  0  0  0  0  0  0  0  0  0  0
   69.2510   37.6790   47.8080 C   0  0  0  0  0  0  0  0  0  0  0  0
   69.0670   41.0170   45.5810 C   0  0  0  0  0  0  0  0  0  0  0  0
   69.2460   35.7950   47.3620 O   0  0  0  0  0  0  0  0  0  0  0  0
   70.0780   40.0530   46.1890 C   0  0  0  0  0  0  0  0  0  0  0  0
   69.2360   36.2390   48.4010 C   0  0  0  0  0  0  0  0  0  0  0  0
   69.8150   39.9030   47.4410 O   0  0  0  0  0  0  0  0  0  0  0  0
   69.4430   42.0080   44.8320 O   0  0  0  0  0  0  0  0  0  0  0  0
  1  2  1  0
  1 12  1  0
  1  7  1  0
  3 13  1  0
  3  8  1  0
  4  2  2  0
  7  6  1  0
  7 11  1  0
  8 10  1  0
  8  5  1  0
  9 11  1  0
 10  1  1  0
 10 12  1  0
 13  8  1  0
M  END
$$$$

     RDKit          3D

 21 20  0  0  0  0  0  0  0  0999 V2000
   70.4320   36.3750   45.6320 O   0  0  0  0  0  0  0  0  0  0  0  0
   63.4060   39.9780   52.0720 C   0  0  0  0  0  0  0  0  0  0  0  0
   68.6710   41.0430   49.3060 C   0  0  0  0  0  0  0  0  0  0  0  0
   68.7350   41.2130   47.7970 C   0  0  0  0  0  0  0  0  0  0  0  0
   67.6680   39.9720   49.7260 C   0  0  0  0  0  0  0  0  0  0  0  0
   70.6390   37.5430   44.8640 C   0  0  0  0  0  0  0  0  0  0  0  0
   65.0860   39.9040   50.1510 C   0  0  0  0  0  0  0  0  0  0  0  0
   70.5700   41.1670   45.5890 O   0  0  0  0  0  0  0  0  0  0  0  0
   65.1590   38.4400   50.1650 C   0  0  0  0  0  0  0  0  0  0  0  0
   62.3140   40.7280   52.8420 C   0  0  0  0  0  0  0  0  0  0  0  0
   73.3350   38.3930   43.5310 C   0  0  0  0  0  0  0  0  0  0  0  0
   70.8100   38.8170   45.7280 C   0  0  0  0  0  0  0  0  0  0  0  0
   66.3480   40.6270   50.0790 C   0  0  0  0  0  0  0  0  0  0  0  0
   72.7240   39.3190   44.4840 C   0  0  0  0  0  0  0  0  0  0  0  0
   71.8690   39.6700   43.5960 F   0  0  0  0  0  0  0  0  0  0  0  0
   62.8660   41.5160   54.0350 C   0  0  0  0  0  0  0  0  0  0  0  0
   73.5110   40.6150   44.6430 C   0  0  0  0  0  0  0  0  0  0  0  0
   70.3240   40.2310   46.1460 C   0  0  0  0  0  0  0  0  0  0  0  0
   72.3060   38.9880   45.7640 C   0  0  0  0  0  0  0  0  0  0  0  0
   63.8820   40.5610   50.7500 C   0  0  0  0  0  0  0  0  0  0  0  0
   69.5790   40.4020   47.1980 N   0  0  0  0  0  0  0  0  0  0  0  0
  2 10  1  0
  3  5  1  0
  4  3  1  0
  5 13  1  0
  6  1  1  0
  7  9  1  0
  7 20  1  0
  8 18  2  0
 10 16  1  0
 11 14  1  0
 12  6  1  0
 12 19  1  0
 12 18  1  0
 13  7  2  3
 14 17  1  0
 14 19  1  0
 15 14  1  0
 18 21  1  0
 20  2  2  3
 21  4  1  0
M  END
$$$$

     RDKit          3D

 11 11  0  0  0  0  0  0  0  0999 V2000
   68.7670   41.1110   45.3820 C   0  0  0  0  0  0  0  0  0  0  0  0
   69.2150   42.3670   47.3620 S   0  0  0  0  0  0  0  0  0  0  0  0
   71.3420   42.0630   46.0990 C   0  0  0  0  0  0  0  0  0  0  0  0
   69.9700   42.0700   45.6080 C   0  0  0  0  0  0  0  0  0  0  0  0
   72.2450   41.0100   45.5470 C   0  0  0  0  0  0  0  0  0  0  0  0
   71.5950   43.0750   47.0890 C   0  0  0  0  0  0  0  0  0  0  0  0
   73.1450   40.0300   45.7780 O   0  0  0  0  0  0  0  0  0  0  0  0
   71.8950   40.6420   44.5530 O   0  0  0  0  0  0  0  0  0  0  0  0
   70.5820   43.0870   48.0270 C   0  0  0  0  0  0  0  0  0  0  0  0
   67.3920   41.5180   45.1540 N   0  0  0  0  0  0  0  0  0  0  0  0
   68.8730   40.1260   44.6860 C   0  0  0  0  0  0  0  0  0  0  0  0
  2  9  1  0
  3  5  1  0
  3  6  1  0
  4  1  1  0
  4  3  1  0
  4  2  1  0
  5  7  1  0
  6  9  1  0
  8  5  2  0
 10  1  1  0
 11  1  2  0
M  END
$$$$

     RDKit          3D

 26 25  0  0  0  0  0  0  0  0999 V2000
   72.2470   40.8600   45.6660 C   0  0  0  0  0  0  0  0  0  0  0  0
   74.4900   40.4020   42.7330 C   0  0  0  0  0  0  0  0  0  0  0  0
   70.7490   39.3840   45.0010 C   0  0  0  0  0  0  0  0  0  0  0  0
   61.2450   38.7150   53.7300 C   0  0  0  0  0  0  0  0  0  0  0  0
   76.8730   41.2840   44.2770 C   0  0  0  0  0  0  0  0  0  0  0  0
   60.0660   38.3600   54.0770 O   0  0  0  0  0  0  0  0  0  0  0  0
   64.4710   38.9340   50.3320 C   0  0  0  0  0  0  0  0  0  0  0  0
   74.6600   40.7410   45.1910 C   0  0  0  0  0  0  0  0  0  0  0  0
   71.0230   40.5350   45.2240 N   0  0  0  0  0  0  0  0  0  0  0  0
   69.8280   38.2110   45.4650 C   0  0  0  0  0  0  0  0  0  0  0  0
   62.3940   36.9260   53.5090 O   0  0  0  0  0  0  0  0  0  0  0  0
   61.9380   39.7060   54.1560 N   0  0  0  0  0  0  0  0  0  0  0  0
   67.7010   37.8970   46.7500 S   0  0  0  0  0  0  0  0  0  0  0  0
   62.3720   38.4440   51.4060 C   0  0  0  0  0  0  0  0  0  0  0  0
   73.3980   40.7460   45.1820 C   0  0  0  0  0  0  0  0  0  0  0  0
   63.8370   37.9580   51.3360 C   0  0  0  0  0  0  0  0  0  0  0  0
   75.3240   41.1400   43.8670 C   0  0  0  0  0  0  0  0  0  0  0  0
   66.7020   37.3410   45.7670 O   0  0  0  0  0  0  0  0  0  0  0  0
   66.8520   39.0500   47.6340 C   0  0  0  0  0  0  0  0  0  0  0  0
   68.6070   38.7780   45.8220 O   0  0  0  0  0  0  0  0  0  0  0  0
   65.4000   38.2180   49.4460 C   0  0  0  0  0  0  0  0  0  0  0  0
   61.6500   37.7980   52.5700 C   0  0  0  0  0  0  0  0  0  0  0  0
   68.4220   37.1930   47.4530 O   0  0  0  0  0  0  0  0  0  0  0  0
   61.6730   38.6480   50.4530 O   0  0  0  0  0  0  0  0  0  0  0  0
   71.8270   41.5460   46.8030 C   0  0  0  0  0  0  0  0  0  0  0  0
   65.5120   38.4640   48.0500 C   0  0  0  0  0  0  0  0  0  0  0  0
  1 25  1  0
  2 17  1  0
  3  9  1  0
  3 10  1  0
  4  6  2  0
  4 12  1  0
  7 16  1  0
  9  1  1  0
 10 20  1  0
 13 23  1  0
 13 19  1  0
 14 22  1  0
 15  8  2  0
 15  1  2  0
 16 14  1  0
 17  5  1  0
 17  8  1  0
 18 13  1  0
 19 26  1  0
 20 13  1  0
 21  7  1  0
 22 11  1  0
 22  4  1  0
 24 14  2  0
 26 21  1  0
M  END
$$$$

     RDKit          3D

 11 11  0  0  0  0  0  0  0  0999 V2000
   68.4360   40.0710   46.5710 P   0  0  0  0  0  0  0  0  0  0  0  0
   67.0920   37.9440   47.3200 C   0  0  0  0  0  0  0  0  0  0  0  0
   68.9110   40.7990   45.1820 C   0  0  0  0  0  0  0  0  0  0  0  0
   67.6520   38.6820   46.1640 C   0  0  0  0  0  0  0  0  0  0  0  0
   67.3520   40.8840   47.3210 O   0  0  0  0  0  0  0  0  0  0  0  0
   69.5490   39.6640   47.4630 O   0  0  0  0  0  0  0  0  0  0  0  0
   71.0370   42.5130   45.0550 C   0  0  0  0  0  0  0  0  0  0  0  0
   70.4940   40.9780   44.9710 S   0  0  0  0  0  0  0  0  0  0  0  0
   66.8920   37.0440   48.5380 O   0  0  0  0  0  0  0  0  0  0  0  0
   67.7210   36.6660   47.6110 C   0  0  0  0  0  0  0  0  0  0  0  0
   68.8660   36.0790   47.3180 C   0  0  0  0  0  0  0  0  0  0  0  0
  1  5  2  0
  1  6  1  0
  2  4  1  0
  2 10  1  0
  2  9  1  0
  3  1  1  0
  4  1  1  0
  8  7  2  0
  8  3  1  0
 10  9  1  0
 11 10  2  0
M  END
$$$$

     RDKit          3D

 17 18  0  0  0  0  0  0  0  0999 V2000
   71.5200   41.6940   46.2900 C   0  0  0  0  0  0  0  0  0  0  0  0
   66.8050   38.7100   48.7330 C   0  0  0  0  0  0  0  0  0  0  0  0
   68.0180   39.8000   47.1110 C   0  0  0  0  0  0  0  0  0  0  0  0
   73.3630   42.7680   46.5230 C   0  0  0  0  0  0  0  0  0  0  0  0
   69.1500   39.1940   47.4980 C   0  0  0  0  0  0  0  0  0  0  0  0
   73.8410   41.8950   46.3190 N   0  0  0  0  0  0  0  0  0  0  0  0
   70.4700   39.9390   47.3750 C   0  0  0  0  0  0  0  0  0  0  0  0
   68.9340   38.0340   48.0990 N   0  0  0  0  0  0  0  0  0  0  0  0
   65.5540   38.8770   49.4860 N   0  0  0  0  0  0  0  0  0  0  0  0
   67.8790   37.7780   48.7660 C   0  0  0  0  0  0  0  0  0  0  0  0
   72.0510   42.5550   45.9270 C   0  0  0  0  0  0  0  0  0  0  0  0
   63.5310   38.7590   50.9450 C   0  0  0  0  0  0  0  0  0  0  0  0
   64.2710   36.7700   50.2440 C   0  0  0  0  0  0  0  0  0  0  0  0
   66.9010   39.7280   47.8300 N   0  0  0  0  0  0  0  0  0  0  0  0
   70.4450   40.9500   46.3330 N   0  0  0  0  0  0  0  0  0  0  0  0
   72.9300   41.2570   45.8210 C   0  0  0  0  0  0  0  0  0  0  0  0
   64.5120   38.2390   49.9420 C   0  0  0  0  0  0  0  0  0  0  0  0
  1 15  1  0
  2 10  1  0
  2  9  1  0
  3  5  1  0
  3 14  1  0
  5  7  1  0
  5  8  1  0
  6  4  1  0
  8 10  2  0
  9 17  1  0
 11  1  1  0
 11  4  1  0
 14  2  2  0
 15  7  1  0
 16  1  1  0
 16  6  1  0
 17 13  1  0
 17 12  1  0
M  END
$$$$

     RDKit          3D

 18 17  0  0  0  0  0  0  0  0999 V2000
   63.0450   37.3040   50.0840 O   0  0  0  0  0  0  0  0  0  0  0  0
   65.3680   37.6400   50.7930 C   0  0  0  0  0  0  0  0  0  0  0  0
   66.1740   37.9740   49.8260 C   0  0  0  0  0  0  0  0  0  0  0  0
   67.6810   37.1060   48.0050 C   0  0  0  0  0  0  0  0  0  0  0  0
   70.9410   43.4400   44.0350 C   0  0  0  0  0  0  0  0  0  0  0  0
   64.2820   35.5320   50.7410 O   0  0  0  0  0  0  0  0  0  0  0  0
   70.5490   39.1400   46.3750 C   0  0  0  0  0  0  0  0  0  0  0  0
   71.0960   41.9570   43.9920 C   0  0  0  0  0  0  0  0  0  0  0  0
   64.1920   36.8470   50.9520 C   0  0  0  0  0  0  0  0  0  0  0  0
   70.3700   37.7450   45.8560 C   0  0  0  0  0  0  0  0  0  0  0  0
   66.3720   37.7490   48.3050 C   0  0  0  0  0  0  0  0  0  0  0  0
   71.3920   41.1970   45.2010 C   0  0  0  0  0  0  0  0  0  0  0  0
   67.7250   35.6900   48.5000 C   0  0  0  0  0  0  0  0  0  0  0  0
   70.5430   41.1940   42.8400 C   0  0  0  0  0  0  0  0  0  0  0  0
   69.9570   36.8870   47.0910 C   0  0  0  0  0  0  0  0  0  0  0  0
   70.6090   39.9170   45.0960 C   0  0  0  0  0  0  0  0  0  0  0  0
   64.5070   37.2970   51.8940 O   0  0  0  0  0  0  0  0  0  0  0  0
   68.6700   37.0830   47.3320 N   0  0  0  0  0  0  0  0  0  0  0  0
  1  9  1  0
  2  9  1  0
  3  2  2  3
  4 11  1  0
  4 13  1  0
  6  9  1  0
  8  5  1  0
  8 12  1  0
  9 17  1  0
 10  7  1  0
 10 15  1  0
 11  3  1  0
 14  8  1  0
 15 18  1  0
 16 12  1  0
 16  7  1  0
 18  4  1  0
M  END
$$$$

     RDKit          3D

  7  6  0  0  0  0  0  0  0  0999 V2000
   68.0690   41.1700   46.5810 O   0  0  0  0  0  0  0  0  0  0  0  0
   70.0690   40.0280   46.8840 S   0  0  0  0  0  0  0  0  0  0  0  0
   71.9370   37.6990   45.5470 C   0  0  0  0  0  0  0  0  0  0  0  0
   70.8310   38.5280   46.3220 C   0  0  0  0  0  0  0  0  0  0  0  0
   67.6480   38.2690   47.5040 Br  0  0  0  0  0  0  0  0  0  0  0  0
   68.4720   39.8250   46.7910 C   0  0  0  0  0  0  0  0  0  0  0  0
   69.6870   37.7890   45.8070 O   0  0  0  0  0  0  0  0  0  0  0  0
  1  6  2  0
  3  4  1  0
  4  2  1  0
  6  2  1  0
  6  5  1  0
  7  4  2  0
M  END
$$$$

     RDKit          3D

 17 16  0  0  0  0  0  0  0  0999 V2000
   67.1510   37.2460   48.3800 C   0  0  0  0  0  0  0  0  0  0  0  0
   70.2020   40.6270   47.4100 C   0  0  0  0  0  0  0  0  0  0  0  0
   73.8280   37.1320   44.0380 C   0  0  0  0  0  0  0  0  0  0  0  0
   73.1290   37.8920   45.3570 C   0  0  0  0  0  0  0  0  0  0  0  0
   72.6470   40.8920   46.1280 O   0  0  0  0  0  0  0  0  0  0  0  0
   73.3000   38.8250   45.8870 C   0  0  0  0  0  0  0  0  0  0  0  0
   64.8790   39.5050   49.5540 C   0  0  0  0  0  0  0  0  0  0  0  0
   71.9850   36.8690   45.4940 C   0  0  0  0  0  0  0  0  0  0  0  0
   66.0330   37.4630   48.7670 C   0  0  0  0  0  0  0  0  0  0  0  0
   68.1440   38.4000   48.0100 C   0  0  0  0  0  0  0  0  0  0  0  0
   71.0270   39.3510   46.7810 C   0  0  0  0  0  0  0  0  0  0  0  0
   64.7720   38.1460   48.8790 C   0  0  0  0  0  0  0  0  0  0  0  0
   63.8570   37.2480   49.7300 C   0  0  0  0  0  0  0  0  0  0  0  0
   69.1690   37.7950   47.1270 N   0  0  0  0  0  0  0  0  0  0  0  0
   72.0950   39.7100   45.9860 C   0  0  0  0  0  0  0  0  0  0  0  0
   67.3600   39.5560   47.1160 C   0  0  0  0  0  0  0  0  0  0  0  0
   70.5500   38.1450   47.1260 C   0  0  0  0  0  0  0  0  0  0  0  0
  1  9  1  0
  3  4  1  0
  4  8  1  0
  4  6  1  0
  6 15  1  0
  9 12  1  0
 10 16  1  0
 10  1  1  0
 11 17  1  0
 11  2  1  0
 12  7  1  0
 12 13  1  0
 14 10  1  0
 15  5  1  0
 15 11  1  0
 17 14  1  0
M  END
$$$$

     RDKit          3D

  8  7  0  0  0  0  0  0  0  0999 V2000
   72.3830   40.1890   46.7050 O   0  0  0  0  0  0  0  0  0  0  0  0
   68.7820   39.1350   46.6280 O   0  0  0  0  0  0  0  0  0  0  0  0
   70.3650   40.5880   45.5150 C   0  0  0  0  0  0  0  0  0  0  0  0
   71.9600   40.4060   45.5420 C   0  0  0  0  0  0  0  0  0  0  0  0
   72.2840   40.8150   44.0540 C   0  0  0  0  0  0  0  0  0  0  0  0
   71.0070   38.7170   47.1600 O   0  0  0  0  0  0  0  0  0  0  0  0
   70.0260   39.3770   46.5210 C   0  0  0  0  0  0  0  0  0  0  0  0
   70.5160   42.0970   45.7410 O   0  0  0  0  0  0  0  0  0  0  0  0
  3  4  1  0
  3  8  1  0
  3  7  1  0
  4  1  2  0
  5  4  1  0
  7  2  2  0
  7  6  1  0
M  END
$$$$

     RDKit          3D

 10  9  0  0  0  0  0  0  0  0999 V2000
   68.2700   40.2400   46.1670 P   0  0  0  0  0  0  0  0  0  0  0  0
   69.5400   37.7090   46.9740 C   0  0  0  0  0  0  0  0  0  0  0  0
   70.2110   37.0000   47.2500 O   0  0  0  0  0  0  0  0  0  0  0  0
   68.7130   41.0650   45.2360 O   0  0  0  0  0  0  0  0  0  0  0  0
   71.8720   39.0680   46.8840 O   0  0  0  0  0  0  0  0  0  0  0  0
   67.7000   41.2000   47.2340 O   0  0  0  0  0  0  0  0  0  0  0  0
   67.2870   39.0890   46.0350 O   0  0  0  0  0  0  0  0  0  0  0  0
   70.6230   39.7510   46.9500 C   0  0  0  0  0  0  0  0  0  0  0  0
   69.5980   38.9860   46.3330 C   0  0  0  0  0  0  0  0  0  0  0  0
   70.1580   40.2570   48.2260 O   0  0  0  0  0  0  0  0  0  0  0  0
  1  9  1  0
  1  6  1  0
  2  3  2  0
  4  1  2  0
  5  8  1  0
  7  1  1  0
  8 10  1  0
  9  8  1  0
  9  2  1  0
M  END
$$$$

     RDKit          3D

 21 21  0  0  0  0  0  0  0  0999 V2000
   64.5030   36.8030   49.8460 C   0  0  0  0  0  0  0  0  0  0  0  0
   71.0340   39.0600   47.4710 C   0  0  0  0  0  0  0  0  0  0  0  0
   69.4430   38.8700   45.7040 O   0  0  0  0  0  0  0  0  0  0  0  0
   68.9700   35.7600   47.4530 C   0  0  0  0  0  0  0  0  0  0  0  0
   71.1910   42.1260   46.5560 C   0  0  0  0  0  0  0  0  0  0  0  0
   69.2130   41.5580   45.2350 N   0  0  0  0  0  0  0  0  0  0  0  0
   70.2990   38.1420   48.4540 C   0  0  0  0  0  0  0  0  0  0  0  0
   64.6570   36.0790   50.8510 O   0  0  0  0  0  0  0  0  0  0  0  0
   71.6710   43.8110   44.4900 O   0  0  0  0  0  0  0  0  0  0  0  0
   72.5800   42.1410   46.0140 C   0  0  0  0  0  0  0  0  0  0  0  0
   68.8650   38.4650   48.6310 C   0  0  0  0  0  0  0  0  0  0  0  0
   73.7550   43.0390   44.0760 O   0  0  0  0  0  0  0  0  0  0  0  0
   65.5420   36.9090   48.7710 C   0  0  0  0  0  0  0  0  0  0  0  0
   72.6820   43.0750   44.7510 C   0  0  0  0  0  0  0  0  0  0  0  0
   70.3590   39.6220   46.3160 C   0  0  0  0  0  0  0  0  0  0  0  0
   66.3120   35.6490   48.4460 C   0  0  0  0  0  0  0  0  0  0  0  0
   63.5610   37.6380   49.8320 O   0  0  0  0  0  0  0  0  0  0  0  0
   70.3450   41.0890   45.9520 C   0  0  0  0  0  0  0  0  0  0  0  0
   66.5530   37.9330   48.8950 N   0  0  0  0  0  0  0  0  0  0  0  0
   67.7190   37.5350   48.5480 C   0  0  0  0  0  0  0  0  0  0  0  0
   67.6930   36.1350   48.0600 C   0  0  0  0  0  0  0  0  0  0  0  0
  1  8  1  0
  2  7  1  0
  4 21  1  0
  7 11  1  0
  9 14  1  0
 10  5  1  0
 12 14  2  0
 13 19  1  0
 13  1  1  0
 14 10  1  0
 15  3  1  0
 15  2  1  0
 16 13  1  0
 17  1  2  0
 18  6  1  0
 18 15  1  0
 18  5  1  0
 20 11  1  0
 20 19  1  0
 21 16  1  0
 21 20  2  0
M  END
$$$$

     RDKit          3D

  7  7  0  0  0  0  0  0  0  0999 V2000
   70.5800   41.0530   46.3980 C   0  0  0  0  0  0  0  0  0  0  0  0
   72.3830   42.0780   47.4810 O   0  0  0  0  0  0  0  0  0  0  0  0
   68.8290   39.3830   47.1180 S   0  0  0  0  0  0  0  0  0  0  0  0
   70.0800   42.3510   46.7030 N   0  0  0  0  0  0  0  0  0  0  0  0
   71.8170   41.7380   46.2600 C   0  0  0  0  0  0  0  0  0  0  0  0
   70.8530   39.5360   46.8170 C   0  0  0  0  0  0  0  0  0  0  0  0
   72.7040   41.2510   45.2560 O   0  0  0  0  0  0  0  0  0  0  0  0
  1  4  1  0
  1  6  1  0
  5  1  1  0
  5  4  1  0
  5  2  1  0
  6  3  1  0
  7  5  1  0
M  END
$$$$

     RDKit          3D

 11 10  0  0  0  0  0  0  0  0999 V2000
   69.9120   38.8990   46.3780 O   0  0  0  0  0  0  0  0  0  0  0  0
   70.5080   36.4290   45.4040 S   0  0  0  0  0  0  0  0  0  0  0  0
   69.1520   38.0840   47.0240 C   0  0  0  0  0  0  0  0  0  0  0  0
   70.7350   41.0670   45.7150 C   0  0  0  0  0  0  0  0  0  0  0  0
   68.7400   35.7830   47.2860 O   0  0  0  0  0  0  0  0  0  0  0  0
   69.8440   40.3150   46.5930 C   0  0  0  0  0  0  0  0  0  0  0  0
   68.6520   36.8690   46.3400 C   0  0  0  0  0  0  0  0  0  0  0  0
   68.5250   40.7990   46.6120 O   0  0  0  0  0  0  0  0  0  0  0  0
   71.0950   40.6850   44.5630 O   0  0  0  0  0  0  0  0  0  0  0  0
   68.3060   38.5630   48.0320 O   0  0  0  0  0  0  0  0  0  0  0  0
   70.8860   42.2720   46.0100 O   0  0  0  0  0  0  0  0  0  0  0  0
  1  6  1  0
  1  3  1  0
  3 10  2  0
  4 11  1  0
  4  6  1  0
  6  8  1  0
  7  2  1  0
  7  3  1  0
  7  5  1  0
  9  4  2  0
M  END
$$$$

     RDKit          3D

 11 11  0  0  0  0  0  0  0  0999 V2000
   68.5560   39.5180   46.2800 C   0  0  0  0  0  0  0  0  0  0  0  0
   70.0460   40.8320   44.6370 C   0  0  0  0  0  0  0  0  0  0  0  0
   67.9450   36.8160   46.3810 Cl  0  0  0  0  0  0  0  0  0  0  0  0
   67.3030   38.4320   46.7460 C   0  0  0  0  0  0  0  0  0  0  0  0
   70.8540   41.8960   44.0580 C   0  0  0  0  0  0  0  0  0  0  0  0
   69.6010   38.7230   47.0490 C   0  0  0  0  0  0  0  0  0  0  0  0
   68.4060   40.9490   46.4070 O   0  0  0  0  0  0  0  0  0  0  0  0
   69.3170   38.4680   48.2780 O   0  0  0  0  0  0  0  0  0  0  0  0
   70.5250   39.4250   44.2440 O   0  0  0  0  0  0  0  0  0  0  0  0
   69.5050   40.7030   45.8840 C   0  0  0  0  0  0  0  0  0  0  0  0
   69.0480   41.0330   43.5490 C   0  0  0  0  0  0  0  0  0  0  0  0
  1  7  1  0
  1  4  1  0
  1  6  1  0
  3  4  1  0
  5  2  1  0
  6  8  1  0
  9  2  1  0
 10  2  1  0
 10  1  1  0
 10  7  1  0
 11  2  1  0
M  END
$$$$

     RDKit          3D

 10  9  0  0  0  0  0  0  0  0999 V2000
   68.8740   37.1970   47.2890 O   0  0  0  0  0  0  0  0  0  0  0  0
   70.3270   37.4870   47.7280 S   0  0  0  0  0  0  0  0  0  0  0  0
   70.9410   39.3760   45.8590 C   0  0  0  0  0  0  0  0  0  0  0  0
   71.2380   36.7920   46.7500 O   0  0  0  0  0  0  0  0  0  0  0  0
   70.1510   38.6560   45.0090 O   0  0  0  0  0  0  0  0  0  0  0  0
   70.3890   36.9470   49.0980 O   0  0  0  0  0  0  0  0  0  0  0  0
   71.7360   40.5480   43.9500 C   0  0  0  0  0  0  0  0  0  0  0  0
   70.3810   39.1900   47.2770 C   0  0  0  0  0  0  0  0  0  0  0  0
   71.3870   40.5480   45.4540 O   0  0  0  0  0  0  0  0  0  0  0  0
   69.6390   40.3520   47.2410 O   0  0  0  0  0  0  0  0  0  0  0  0
  1  2  1  0
  2  6  1  0
  3  8  1  0
  4  2  1  0
  5  3  2  0
  7  9  1  0
  8  2  1  0
  9  3  1  0
 10  8  2  0
M  END
$$$$

     RDKit          3D

  8  7  0  0  0  0  0  0  0  0999 V2000
   69.1450   40.0990   47.5460 C   0  0  0  0  0  0  0  0  0  0  0  0
   68.8670   38.9580   46.6550 C   0  0  0  0  0  0  0  0  0  0  0  0
   70.4300   35.9240   45.4240 C   0  0  0  0  0  0  0  0  0  0  0  0
   69.4330   36.9850   45.6990 C   0  0  0  0  0  0  0  0  0  0  0  0
   68.5090   40.9900   47.9690 O   0  0  0  0  0  0  0  0  0  0  0  0
   70.0370   34.8480   45.4060 O   0  0  0  0  0  0  0  0  0  0  0  0
   71.1320   38.3320   47.1500 O   0  0  0  0  0  0  0  0  0  0  0  0
   69.8420   37.7570   46.9450 C   0  0  0  0  0  0  0  0  0  0  0  0
  1  5  2  0
  2  8  1  0
  2  1  1  0
  3  4  1  0
  4  8  1  0
  6  3  2  0
  8  7  1  0
M  END
$$$$

     RDKit          3D

  9 10  0  0  0  0  0  0  0  0999 V2000
   67.9650   36.3570   46.9860 N   0  0  0  0  0  0  0  0  0  0  0  0
   71.0610   38.3810   45.7850 C   0  0  0  0  0  0  0  0  0  0  0  0
   68.8090   38.0760   45.2910 C   0  0  0  0  0  0  0  0  0  0  0  0
   67.6130   37.5110   45.9220 C   0  0  0  0  0  0  0  0  0  0  0  0
   69.6290   38.9510   46.4620 C   0  0  0  0  0  0  0  0  0  0  0  0
   68.5420   37.0150   48.1200 C   0  0  0  0  0  0  0  0  0  0  0  0
   70.7770   39.6790   45.8840 N   0  0  0  0  0  0  0  0  0  0  0  0
   69.4570   38.1510   47.7590 C   0  0  0  0  0  0  0  0  0  0  0  0
   66.3850   35.9930   47.2010 C   0  0  0  0  0  0  0  0  0  0  0  0
  1  9  1  0
  1  6  1  0
  2  7  1  0
  2  5  1  0
  3  4  1  0
  3  5  1  0
  4  1  1  0
  5  8  1  0
  7  5  1  0
  8  6  1  0
M  END
$$$$

     RDKit          3D

  7  7  0  0  0  0  0  0  0  0999 V2000
   70.4140   41.2870   47.2870 C   0  0  0  0  0  0  0  0  0  0  0  0
   69.9810   40.4240   44.2070 C   0  0  0  0  0  0  0  0  0  0  0  0
   69.6730   40.3720   47.7380 O   0  0  0  0  0  0  0  0  0  0  0  0
   68.5550   41.7290   45.5560 C   0  0  0  0  0  0  0  0  0  0  0  0
   69.1810   41.0980   46.6800 C   0  0  0  0  0  0  0  0  0  0  0  0
   68.4640   41.1790   44.4540 O   0  0  0  0  0  0  0  0  0  0  0  0
   70.9990   42.4330   46.4800 O   0  0  0  0  0  0  0  0  0  0  0  0
  1  7  1  0
  1  3  1  0
  2  6  1  0
  5  4  1  0
  5  1  1  0
  5  3  1  0
  6  4  1  0
M  END
$$$$
