
     RDKit          3D

  5  4  0  0  0  0  0  0  0  0999 V2000
   69.7290   35.6680   47.1670 O   0  0  0  0  0  0  0  0  0  0  0  0
   69.5970   34.7460   48.2410 S   0  0  0  0  0  0  0  0  0  0  0  0
   69.9160   33.1480   47.6100 C   0  0  0  0  0  0  0  0  0  0  0  0
   70.1170   32.0990   48.6900 C   0  0  0  0  0  0  0  0  0  0  0  0
   69.0680   35.2250   49.3610 O   0  0  0  0  0  0  0  0  0  0  0  0
  2  1  1  0
  2  5  2  0
  3  2  1  0
  3  4  1  0
M  END
$$$$

     RDKit          3D

 13 13  0  0  0  0  0  0  0  0999 V2000
   68.7460   36.5460   42.3970 S   0  0  0  0  0  0  0  0  0  0  0  0
   64.6020   32.3580   47.8190 O   0  0  0  0  0  0  0  0  0  0  0  0
   68.3800   37.7890   43.0890 O   0  0  0  0  0  0  0  0  0  0  0  0
   69.7850   36.4780   41.4800 O   0  0  0  0  0  0  0  0  0  0  0  0
   67.7700   34.0930   47.2920 C   0  0  0  0  0  0  0  0  0  0  0  0
   69.0040   35.6490   43.6010 C   0  0  0  0  0  0  0  0  0  0  0  0
   68.2010   34.5660   45.2240 C   0  0  0  0  0  0  0  0  0  0  0  0
   67.4580   34.7590   46.0800 N   0  0  0  0  0  0  0  0  0  0  0  0
   66.9820   33.1870   47.8340 N   0  0  0  0  0  0  0  0  0  0  0  0
   69.2880   34.9790   44.5130 C   0  0  0  0  0  0  0  0  0  0  0  0
   65.7350   32.8640   47.5150 C   0  0  0  0  0  0  0  0  0  0  0  0
   67.9420   35.5510   42.1570 O   0  0  0  0  0  0  0  0  0  0  0  0
   65.6230   32.7000   46.2730 O   0  0  0  0  0  0  0  0  0  0  0  0
  1  3  1  0
  1  6  1  0
  4  1  1  0
  5  9  2  3
  6 10  1  0
  7  8  1  0
  8  5  1  0
 10  7  1  0
 11  2  1  0
 11  9  1  0
 12  1  1  0
 12  6  1  0
 13 11  2  0
M  END
$$$$

     RDKit          3D

 17 16  0  0  0  0  0  0  0  0999 V2000
   67.7420   35.6910   47.7640 N   0  0  0  0  0  0  0  0  0  0  0  0
   68.3870   36.1580   49.8780 C   0  0  0  0  0  0  0  0  0  0  0  0
   65.4950   36.5400   47.2580 O   0  0  0  0  0  0  0  0  0  0  0  0
   71.0650   37.0590   53.3910 C   0  0  0  0  0  0  0  0  0  0  0  0
   70.2590   34.9720   47.3940 O   0  0  0  0  0  0  0  0  0  0  0  0
   67.9520   33.7120   43.8230 O   0  0  0  0  0  0  0  0  0  0  0  0
   69.2700   35.8920   46.8910 S   0  0  0  0  0  0  0  0  0  0  0  0
   69.5750   37.2440   47.2090 O   0  0  0  0  0  0  0  0  0  0  0  0
   67.4530   36.0420   45.1390 O   0  0  0  0  0  0  0  0  0  0  0  0
   69.5400   35.7080   51.8380 C   0  0  0  0  0  0  0  0  0  0  0  0
   69.2820   34.9940   43.0280 O   0  0  0  0  0  0  0  0  0  0  0  0
   68.7300   34.4960   44.0420 C   0  0  0  0  0  0  0  0  0  0  0  0
   67.4030   36.1260   49.1550 C   0  0  0  0  0  0  0  0  0  0  0  0
   69.8800   37.0820   52.3680 S   0  0  0  0  0  0  0  0  0  0  0  0
   68.7000   35.4070   45.2820 C   0  0  0  0  0  0  0  0  0  0  0  0
   69.4170   35.6770   50.4740 C   0  0  0  0  0  0  0  0  0  0  0  0
   66.5590   36.1130   47.2700 C   0  0  0  0  0  0  0  0  0  0  0  0
  1 13  1  0
  2 16  1  0
  3 17  1  0
  6 12  1  0
  7  8  2  0
  7  5  2  0
  7  1  1  0
  9 15  2  0
 10 14  1  0
 11 12  2  0
 12 15  1  0
 13  2  1  0
 14  4  1  0
 15  7  1  0
 16 10  1  0
 17  1  1  0
M  END
$$$$

     RDKit          3D

 12 13  0  0  0  0  0  0  0  0999 V2000
   65.2060   37.0350   44.8530 C   0  0  0  0  0  0  0  0  0  0  0  0
   67.5660   37.4780   45.5410 C   0  0  0  0  0  0  0  0  0  0  0  0
   66.5750   35.1140   45.9720 C   0  0  0  0  0  0  0  0  0  0  0  0
   66.3730   36.7060   45.5990 C   0  0  0  0  0  0  0  0  0  0  0  0
   68.4870   37.0520   46.6000 C   0  0  0  0  0  0  0  0  0  0  0  0
   69.9470   35.1010   46.8780 C   0  0  0  0  0  0  0  0  0  0  0  0
   64.0590   36.0660   44.9990 C   0  0  0  0  0  0  0  0  0  0  0  0
   69.0880   35.7920   46.0550 C   0  0  0  0  0  0  0  0  0  0  0  0
   67.9430   34.9730   45.4710 N   0  0  0  0  0  0  0  0  0  0  0  0
   64.4300   34.9270   44.6110 O   0  0  0  0  0  0  0  0  0  0  0  0
   70.2950   33.8400   46.2520 O   0  0  0  0  0  0  0  0  0  0  0  0
   70.4630   35.9770   45.8040 N   0  0  0  0  0  0  0  0  0  0  0  0
  1  7  1  0
  2  4  1  0
  2  5  1  0
  4  1  1  0
  4  3  1  0
  6 11  1  0
  8  5  1  0
  8  6  1  0
  9  3  1  0
  9  8  1  0
 10  7  1  0
 12  8  1  0
 12  6  1  0
M  END
$$$$

     RDKit          3D

  8  7  0  0  0  0  0  0  0  0999 V2000
   72.2710   35.9410   45.2050 O   0  0  0  0  0  0  0  0  0  0  0  0
   70.8120   34.1570   44.3430 C   0  0  0  0  0  0  0  0  0  0  0  0
   67.2410   34.4250   43.1740 O   0  0  0  0  0  0  0  0  0  0  0  0
   71.1650   35.4950   45.1580 C   0  0  0  0  0  0  0  0  0  0  0  0
   68.7400   34.1490   45.8290 N   0  0  0  0  0  0  0  0  0  0  0  0
   69.3940   34.5320   44.3070 C   0  0  0  0  0  0  0  0  0  0  0  0
   70.4130   36.1630   45.8300 O   0  0  0  0  0  0  0  0  0  0  0  0
   68.4480   33.7440   43.3950 C   0  0  0  0  0  0  0  0  0  0  0  0
  2  4  1  0
  3  8  1  0
  4  1  2  0
  4  7  1  0
  6  2  1  0
  6  5  1  0
  8  6  1  0
M  END
$$$$

     RDKit          3D

 16 15  0  0  0  0  0  0  0  0999 V2000
   68.7300   34.8420   47.7800 C   0  0  0  0  0  0  0  0  0  0  0  0
   67.3000   34.9850   43.4610 C   0  0  0  0  0  0  0  0  0  0  0  0
   67.9800   33.8170   48.1480 C   0  0  0  0  0  0  0  0  0  0  0  0
   68.0520   35.8350   41.1070 O   0  0  0  0  0  0  0  0  0  0  0  0
   70.6420   35.5830   46.1960 C   0  0  0  0  0  0  0  0  0  0  0  0
   69.4060   35.4050   48.5980 O   0  0  0  0  0  0  0  0  0  0  0  0
   70.7390   33.1720   50.3090 C   0  0  0  0  0  0  0  0  0  0  0  0
   67.2750   37.9330   42.0220 O   0  0  0  0  0  0  0  0  0  0  0  0
   68.0440   36.6520   42.2780 S   0  0  0  0  0  0  0  0  0  0  0  0
   69.1330   37.0350   42.9170 O   0  0  0  0  0  0  0  0  0  0  0  0
   69.4940   33.4890   50.8980 N   0  0  0  0  0  0  0  0  0  0  0  0
   68.3020   32.8360   50.4200 C   0  0  0  0  0  0  0  0  0  0  0  0
   68.2570   36.0460   45.5870 C   0  0  0  0  0  0  0  0  0  0  0  0
   67.3730   33.4750   49.4740 C   0  0  0  0  0  0  0  0  0  0  0  0
   68.0110   34.7480   44.6980 C   0  0  0  0  0  0  0  0  0  0  0  0
   69.1560   35.4510   46.5630 C   0  0  0  0  0  0  0  0  0  0  0  0
  1  3  1  0
  1  6  2  0
  2 15  1  0
  3 14  1  0
  4  9  1  0
  7 11  1  0
  8  9  1  0
  9 10  1  0
  9  2  1  0
 12 11  1  0
 13 16  1  0
 14 12  1  0
 15 13  1  0
 16  5  1  0
 16  1  1  0
M  END
$$$$

     RDKit          3D

 13 13  0  0  0  0  0  0  0  0999 V2000
   64.8160   32.3060   47.4000 C   0  0  0  0  0  0  0  0  0  0  0  0
   67.1810   32.6570   49.1370 C   0  0  0  0  0  0  0  0  0  0  0  0
   67.8760   33.9740   47.4870 C   0  0  0  0  0  0  0  0  0  0  0  0
   68.5420   32.1470   49.5510 C   0  0  0  0  0  0  0  0  0  0  0  0
   67.2670   32.5890   47.6280 C   0  0  0  0  0  0  0  0  0  0  0  0
   70.4140   33.3380   50.0760 F   0  0  0  0  0  0  0  0  0  0  0  0
   70.1700   34.9310   47.6660 O   0  0  0  0  0  0  0  0  0  0  0  0
   69.0770   33.4120   45.5500 O   0  0  0  0  0  0  0  0  0  0  0  0
   68.0460   33.9780   46.0230 C   0  0  0  0  0  0  0  0  0  0  0  0
   66.1220   32.3570   46.8300 O   0  0  0  0  0  0  0  0  0  0  0  0
   69.4250   33.2390   49.2590 C   0  0  0  0  0  0  0  0  0  0  0  0
   67.0670   34.3290   45.2690 O   0  0  0  0  0  0  0  0  0  0  0  0
   69.2950   34.1720   48.0760 C   0  0  0  0  0  0  0  0  0  0  0  0
  2  4  1  0
  3  9  1  0
  3  5  1  0
  3 13  1  0
  5 10  1  0
  5  2  1  0
  7 13  2  0
  8  9  1  0
 10  1  1  0
 11  4  1  0
 11  6  1  0
 12  9  2  0
 13 11  1  0
M  END
$$$$

     RDKit          3D

 12 11  0  0  0  0  0  0  0  0999 V2000
   71.2950   33.8330   42.2200 C   0  0  0  0  0  0  0  0  0  0  0  0
   70.3560   32.4700   43.7560 O   0  0  0  0  0  0  0  0  0  0  0  0
   70.1820   35.3840   47.7860 C   0  0  0  0  0  0  0  0  0  0  0  0
   69.0130   34.8030   45.6890 N   0  0  0  0  0  0  0  0  0  0  0  0
   67.9280   35.0580   43.6310 C   0  0  0  0  0  0  0  0  0  0  0  0
   68.7150   34.0160   42.8190 C   0  0  0  0  0  0  0  0  0  0  0  0
   67.0230   35.7950   45.4620 O   0  0  0  0  0  0  0  0  0  0  0  0
   70.1650   33.7160   43.2280 C   0  0  0  0  0  0  0  0  0  0  0  0
   69.6540   34.6650   48.7300 O   0  0  0  0  0  0  0  0  0  0  0  0
   68.0490   35.3160   44.9140 C   0  0  0  0  0  0  0  0  0  0  0  0
   71.0530   36.6400   47.4800 C   0  0  0  0  0  0  0  0  0  0  0  0
   69.6870   34.8990   46.5280 N   0  0  0  0  0  0  0  0  0  0  0  0
  3  9  2  0
  4 12  1  0
  5 10  1  0
  6  8  1  0
  6  5  1  0
  8  1  1  0
  8  2  1  0
 10  7  2  0
 10  4  1  0
 11  3  1  0
 12  3  1  0
M  END
$$$$

     RDKit          3D

 13 13  0  0  0  0  0  0  0  0999 V2000
   70.2620   34.1660   51.0420 C   0  0  0  0  0  0  0  0  0  0  0  0
   65.9150   33.7850   44.7850 O   0  0  0  0  0  0  0  0  0  0  0  0
   66.8720   31.9150   45.5080 O   0  0  0  0  0  0  0  0  0  0  0  0
   70.5220   33.0590   51.9110 C   0  0  0  0  0  0  0  0  0  0  0  0
   68.4110   34.2380   46.8690 C   0  0  0  0  0  0  0  0  0  0  0  0
   69.9570   32.7390   49.0300 O   0  0  0  0  0  0  0  0  0  0  0  0
   69.6540   34.9260   47.4810 C   0  0  0  0  0  0  0  0  0  0  0  0
   70.2510   35.7430   46.8650 O   0  0  0  0  0  0  0  0  0  0  0  0
   69.8070   33.8990   49.6800 C   0  0  0  0  0  0  0  0  0  0  0  0
   66.5180   33.1050   45.5130 C   0  0  0  0  0  0  0  0  0  0  0  0
   67.3730   33.9430   46.0780 C   0  0  0  0  0  0  0  0  0  0  0  0
   67.3080   35.3290   46.6130 C   0  0  0  0  0  0  0  0  0  0  0  0
   69.5610   35.0260   48.9270 N   0  0  0  0  0  0  0  0  0  0  0  0
  1  4  1  0
  2 10  2  0
  3 10  1  0
  5  7  1  0
  6  9  2  0
  7 13  1  0
  8  7  2  0
  9  1  1  0
 11 10  1  0
 11 12  1  0
 11  5  1  0
 12  5  1  0
 13  9  1  0
M  END
$$$$

     RDKit          3D

 14 14  0  0  0  0  0  0  0  0999 V2000
   70.3790   35.8970   48.1800 O   0  0  0  0  0  0  0  0  0  0  0  0
   71.4770   36.7150   44.1620 C   0  0  0  0  0  0  0  0  0  0  0  0
   69.2740   34.0690   45.4190 C   0  0  0  0  0  0  0  0  0  0  0  0
   66.9540   32.5280   44.9880 C   0  0  0  0  0  0  0  0  0  0  0  0
   66.6270   31.2360   45.4700 O   0  0  0  0  0  0  0  0  0  0  0  0
   69.2190   33.1990   44.4640 N   0  0  0  0  0  0  0  0  0  0  0  0
   68.0570   32.5580   44.0260 C   0  0  0  0  0  0  0  0  0  0  0  0
   72.0730   36.7180   43.0890 N   0  0  0  0  0  0  0  0  0  0  0  0
   70.3610   34.9430   47.4920 C   0  0  0  0  0  0  0  0  0  0  0  0
   66.9150   33.6220   46.0300 C   0  0  0  0  0  0  0  0  0  0  0  0
   68.1580   34.5180   45.9730 C   0  0  0  0  0  0  0  0  0  0  0  0
   71.7530   34.2090   44.6940 O   0  0  0  0  0  0  0  0  0  0  0  0
   71.0690   36.5560   45.5490 C   0  0  0  0  0  0  0  0  0  0  0  0
   70.8070   34.7650   45.8040 S   0  0  0  0  0  0  0  0  0  0  0  0
  2 13  1  0
  3 14  1  0
  3 11  1  0
  4  5  1  0
  4 10  1  0
  6  3  2  0
  7  6  1  0
  7  4  1  0
  8  2  3  0
  9  1  2  0
 11 10  1  0
 13 14  1  0
 14 12  1  0
 14  9  1  0
M  END
$$$$

     RDKit          3D

  5  5  0  0  0  0  0  0  0  0999 V2000
   69.5680   37.6540   46.2070 C   0  0  0  0  0  0  0  0  0  0  0  0
   69.4680   34.6980   46.9210 N   0  0  0  0  0  0  0  0  0  0  0  0
   70.1260   36.4900   48.0690 O   0  0  0  0  0  0  0  0  0  0  0  0
   69.8700   36.4330   45.4170 O   0  0  0  0  0  0  0  0  0  0  0  0
   69.8670   36.2380   46.7290 C   0  0  0  0  0  0  0  0  0  0  0  0
  1  5  1  0
  4  1  1  0
  4  5  1  0
  5  2  1  0
  5  3  1  0
M  END
$$$$

     RDKit          3D

 27 30  0  0  0  0  0  0  0  0999 V2000
   71.0630   36.3470   44.2230 N   0  0  0  0  0  0  0  0  0  0  0  0
   66.4570   30.0560   48.2350 O   0  0  0  0  0  0  0  0  0  0  0  0
   68.5940   31.7710   45.6130 C   0  0  0  0  0  0  0  0  0  0  0  0
   70.5470   34.8370   45.9130 C   0  0  0  0  0  0  0  0  0  0  0  0
   66.1910   29.3850   49.7770 C   0  0  0  0  0  0  0  0  0  0  0  0
   69.3180   33.4380   47.5810 C   0  0  0  0  0  0  0  0  0  0  0  0
   68.0550   31.6110   46.8360 C   0  0  0  0  0  0  0  0  0  0  0  0
   71.0490   36.7420   42.9540 C   0  0  0  0  0  0  0  0  0  0  0  0
   68.2120   31.6840   51.6420 C   0  0  0  0  0  0  0  0  0  0  0  0
   72.1200   38.3040   41.6020 C   0  0  0  0  0  0  0  0  0  0  0  0
   66.0190   28.8150   48.3900 C   0  0  0  0  0  0  0  0  0  0  0  0
   72.3140   40.8220   41.1880 C   0  0  0  0  0  0  0  0  0  0  0  0
   73.1950   39.9490   40.5250 C   0  0  0  0  0  0  0  0  0  0  0  0
   69.5560   32.7320   45.3550 C   0  0  0  0  0  0  0  0  0  0  0  0
   68.0820   30.6430   51.4310 O   0  0  0  0  0  0  0  0  0  0  0  0
   72.5190   37.1030   42.4470 C   0  0  0  0  0  0  0  0  0  0  0  0
   67.1030   30.3700   49.4960 C   0  0  0  0  0  0  0  0  0  0  0  0
   66.8090   32.1910   52.0770 C   0  0  0  0  0  0  0  0  0  0  0  0
   67.7750   31.7660   49.1940 C   0  0  0  0  0  0  0  0  0  0  0  0
   71.6340   39.5290   40.8510 C   0  0  0  0  0  0  0  0  0  0  0  0
   73.5140   38.8540   41.4740 C   0  0  0  0  0  0  0  0  0  0  0  0
   74.3310   37.8390   40.8000 O   0  0  0  0  0  0  0  0  0  0  0  0
   68.4860   32.1430   47.9450 C   0  0  0  0  0  0  0  0  0  0  0  0
   69.7030   33.7100   46.3500 C   0  0  0  0  0  0  0  0  0  0  0  0
   68.3970   32.5120   50.3000 C   0  0  0  0  0  0  0  0  0  0  0  0
   70.3840   35.3810   44.7760 C   0  0  0  0  0  0  0  0  0  0  0  0
   69.0640   32.3940   52.5750 O   0  0  0  0  0  0  0  0  0  0  0  0
  1 26  2  3
  2 11  1  0
  2 17  1  0
  3  7  1  0
  4 24  1  0
  6 23  1  0
  7 23  2  0
  8  1  1  0
  9 18  1  0
  9 27  1  0
 10 16  1  0
 11  5  1  0
 13 20  1  0
 13 12  1  0
 13 21  1  0
 14  3  2  0
 14 24  1  0
 15  9  1  0
 16  8  1  0
 17 19  1  0
 17  5  1  0
 19 25  1  0
 20 12  1  0
 20 10  1  0
 21 22  1  0
 21 10  1  0
 23 19  1  0
 24  6  2  0
 25  9  1  0
 26  4  1  0
M  END
$$$$

     RDKit          3D

 12 12  0  0  0  0  0  0  0  0999 V2000
   67.0740   36.0900   43.8840 O   0  0  0  0  0  0  0  0  0  0  0  0
   68.1520   28.3410   46.1910 C   0  0  0  0  0  0  0  0  0  0  0  0
   66.8640   35.0360   44.6560 C   0  0  0  0  0  0  0  0  0  0  0  0
   66.2330   29.9230   46.0700 N   0  0  0  0  0  0  0  0  0  0  0  0
   68.9850   33.8870   43.6130 N   0  0  0  0  0  0  0  0  0  0  0  0
   67.3410   31.8310   46.1100 C   0  0  0  0  0  0  0  0  0  0  0  0
   65.7440   34.9940   45.2950 O   0  0  0  0  0  0  0  0  0  0  0  0
   67.4990   29.6130   46.2970 N   0  0  0  0  0  0  0  0  0  0  0  0
   67.7300   33.7870   44.5770 C   0  0  0  0  0  0  0  0  0  0  0  0
   66.2330   31.2170   45.5660 C   0  0  0  0  0  0  0  0  0  0  0  0
   68.1140   30.8400   46.7050 C   0  0  0  0  0  0  0  0  0  0  0  0
   67.6630   33.2640   46.0360 C   0  0  0  0  0  0  0  0  0  0  0  0
  1  3  2  0
  2  8  1  0
  3  7  1  0
  4  8  1  0
  6 12  1  0
  6 11  1  0
  8 11  1  0
  9  5  1  0
  9  3  1  0
  9 12  1  0
 10  4  1  0
 10  6  1  0
M  END
$$$$

     RDKit          3D

  7  7  0  0  0  0  0  0  0  0999 V2000
   69.8450   34.4180   45.0120 C   0  0  0  0  0  0  0  0  0  0  0  0
   71.0260   35.3420   45.0010 C   0  0  0  0  0  0  0  0  0  0  0  0
   68.8950   33.8720   44.0400 O   0  0  0  0  0  0  0  0  0  0  0  0
   70.9270   35.7280   46.5070 C   0  0  0  0  0  0  0  0  0  0  0  0
   69.7590   33.6400   46.1100 N   0  0  0  0  0  0  0  0  0  0  0  0
   72.7280   36.2720   46.5320 S   0  0  0  0  0  0  0  0  0  0  0  0
   69.9230   34.7300   46.9760 C   0  0  0  0  0  0  0  0  0  0  0  0
  1  5  1  0
  2  1  1  0
  2  4  1  0
  3  1  2  0
  4  6  1  0
  4  7  1  0
  5  7  1  0
M  END
$$$$

     RDKit          3D

 14 15  0  0  0  0  0  0  0  0999 V2000
   67.7680   35.3840   45.9780 C   0  0  0  0  0  0  0  0  0  0  0  0
   67.9380   34.5790   43.5560 C   0  0  0  0  0  0  0  0  0  0  0  0
   71.7200   35.5460   48.3860 O   0  0  0  0  0  0  0  0  0  0  0  0
   67.8510   35.6370   42.5380 O   0  0  0  0  0  0  0  0  0  0  0  0
   67.3330   36.2090   45.0290 O   0  0  0  0  0  0  0  0  0  0  0  0
   65.9410   34.2320   44.8260 O   0  0  0  0  0  0  0  0  0  0  0  0
   70.2990   35.5540   48.1010 P   0  0  0  0  0  0  0  0  0  0  0  0
   70.3600   35.5290   43.8230 O   0  0  0  0  0  0  0  0  0  0  0  0
   69.8650   37.0280   48.1650 O   0  0  0  0  0  0  0  0  0  0  0  0
   67.0620   34.8640   44.7500 C   0  0  0  0  0  0  0  0  0  0  0  0
   69.3160   34.6000   44.2360 C   0  0  0  0  0  0  0  0  0  0  0  0
   70.0080   34.8590   46.7520 O   0  0  0  0  0  0  0  0  0  0  0  0
   69.0460   34.5590   45.8140 C   0  0  0  0  0  0  0  0  0  0  0  0
   69.5640   34.6540   49.0780 O   0  0  0  0  0  0  0  0  0  0  0  0
  1  5  1  0
  2  4  1  0
  2 11  1  0
  2 10  1  0
  7  9  2  0
  7  3  1  0
  7 14  1  0
 10  6  1  0
 10  5  1  0
 10  1  1  0
 11  8  1  0
 11 13  1  0
 12  7  1  0
 13  1  1  0
 13 12  1  0
M  END
$$$$

     RDKit          3D

  1  0  0  0  0  0  0  0  0  0999 V2000
   65.6890   25.1470   52.6890 Br  0  0  0  0  0  0  0  0  0  0  0  0
M  END
$$$$

     RDKit          3D

  8  9  0  0  0  0  0  0  0  0999 V2000
   66.0640   33.2590   41.7800 O   0  0  0  0  0  0  0  0  0  0  0  0
   66.0660   32.8830   44.3440 C   0  0  0  0  0  0  0  0  0  0  0  0
   63.3480   33.8180   43.6640 O   0  0  0  0  0  0  0  0  0  0  0  0
   67.3030   34.2120   45.9160 O   0  0  0  0  0  0  0  0  0  0  0  0
   64.5590   32.6060   43.7270 C   0  0  0  0  0  0  0  0  0  0  0  0
   66.5690   34.0730   44.9380 C   0  0  0  0  0  0  0  0  0  0  0  0
   65.6990   34.6450   44.1460 O   0  0  0  0  0  0  0  0  0  0  0  0
   65.5560   34.0000   42.8510 C   0  0  0  0  0  0  0  0  0  0  0  0
  2  6  1  0
  5  3  1  0
  5  2  1  0
  6  4  2  0
  7  6  1  0
  8  1  1  0
  8  5  1  0
  8  7  1  0
  8  2  1  0
M  END
$$$$

     RDKit          3D

 31 33  0  0  0  0  0  0  0  0999 V2000
   69.7250   33.0720   43.8210 O   0  0  0  0  0  0  0  0  0  0  0  0
   68.1720   31.1730   47.5210 O   0  0  0  0  0  0  0  0  0  0  0  0
   67.4850   33.1390   46.1580 O   0  0  0  0  0  0  0  0  0  0  0  0
   72.5950   35.0440   43.6940 C   0  0  0  0  0  0  0  0  0  0  0  0
   68.2320   34.1860   52.3540 C   0  0  0  0  0  0  0  0  0  0  0  0
   69.3090   33.6460   51.9220 N   0  0  0  0  0  0  0  0  0  0  0  0
   69.5910   37.0310   40.3120 C   0  0  0  0  0  0  0  0  0  0  0  0
   68.8800   37.8530   39.2360 C   0  0  0  0  0  0  0  0  0  0  0  0
   67.1930   34.6290   51.4280 C   0  0  0  0  0  0  0  0  0  0  0  0
   70.7050   35.4810   42.4000 C   0  0  0  0  0  0  0  0  0  0  0  0
   70.7240   33.7130   45.9270 C   0  0  0  0  0  0  0  0  0  0  0  0
   73.6010   34.2150   43.7450 C   0  0  0  0  0  0  0  0  0  0  0  0
   69.3840   35.5950   42.2580 N   0  0  0  0  0  0  0  0  0  0  0  0
   66.1510   35.8500   51.5170 C   0  0  0  0  0  0  0  0  0  0  0  0
   69.0850   34.3410   54.6320 C   0  0  0  0  0  0  0  0  0  0  0  0
   70.5470   33.9340   44.3980 C   0  0  0  0  0  0  0  0  0  0  0  0
   70.5000   33.4580   52.7640 C   0  0  0  0  0  0  0  0  0  0  0  0
   68.8880   33.4160   48.3500 N   0  0  0  0  0  0  0  0  0  0  0  0
   71.4360   36.4840   41.7000 C   0  0  0  0  0  0  0  0  0  0  0  0
   69.3930   33.1200   50.6350 C   0  0  0  0  0  0  0  0  0  0  0  0
   74.8850   32.4000   43.3280 N   0  0  0  0  0  0  0  0  0  0  0  0
   70.4930   34.0910   54.1010 C   0  0  0  0  0  0  0  0  0  0  0  0
   71.2600   34.8270   43.5100 N   0  0  0  0  0  0  0  0  0  0  0  0
   71.0420   36.8570   40.3890 C   0  0  0  0  0  0  0  0  0  0  0  0
   68.9550   36.5890   41.4240 C   0  0  0  0  0  0  0  0  0  0  0  0
   68.4220   35.1620   53.5310 C   0  0  0  0  0  0  0  0  0  0  0  0
   67.3520   34.3240   50.0160 C   0  0  0  0  0  0  0  0  0  0  0  0
   74.5790   33.5730   44.0140 C   0  0  0  0  0  0  0  0  0  0  0  0
   69.9500   32.5880   46.2860 O   0  0  0  0  0  0  0  0  0  0  0  0
   68.3160   33.3990   49.7330 C   0  0  0  0  0  0  0  0  0  0  0  0
   68.5380   32.5720   47.0940 P   0  0  0  0  0  0  0  0  0  0  0  0
  1 16  2  0
  4 12  2  0
  5 26  1  0
  6 20  1  0
  6  5  1  0
  6 17  1  0
  7  8  1  0
  7 24  1  0
  7 25  1  0
  9 14  1  0
  9  5  1  0
 10 23  1  0
 11 29  1  0
 12 28  2  0
 13 10  1  0
 16 11  1  0
 17 22  1  0
 19 10  1  0
 21 28  1  0
 22 15  1  0
 23  4  1  0
 23 16  1  0
 24 19  1  0
 25 13  1  0
 26 15  1  0
 27  9  1  0
 29 31  1  0
 30 18  1  0
 30 27  1  0
 30 20  1  0
 31  3  2  0
 31  2  1  0
 31 18  1  0
M  END
$$$$

     RDKit          3D

 29 31  0  0  0  0  0  0  0  0999 V2000
   69.7640   30.1900   43.2000 C   0  0  0  0  0  0  0  0  0  0  0  0
   75.0640   33.2810   43.2730 C   0  0  0  0  0  0  0  0  0  0  0  0
   64.6400   35.2120   50.1690 C   0  0  0  0  0  0  0  0  0  0  0  0
   70.5160   34.3390   42.9790 C   0  0  0  0  0  0  0  0  0  0  0  0
   72.7130   33.8260   43.0090 O   0  0  0  0  0  0  0  0  0  0  0  0
   66.9380   35.5670   46.3630 C   0  0  0  0  0  0  0  0  0  0  0  0
   70.2290   30.9690   41.9880 C   0  0  0  0  0  0  0  0  0  0  0  0
   76.2130   31.5080   46.0670 C   0  0  0  0  0  0  0  0  0  0  0  0
   66.5210   33.1960   48.2150 C   0  0  0  0  0  0  0  0  0  0  0  0
   72.1780   34.7790   46.0860 O   0  0  0  0  0  0  0  0  0  0  0  0
   70.8830   36.1260   44.6710 C   0  0  0  0  0  0  0  0  0  0  0  0
   76.2500   32.6380   43.7250 C   0  0  0  0  0  0  0  0  0  0  0  0
   66.0040   33.8850   49.1990 N   0  0  0  0  0  0  0  0  0  0  0  0
   74.0220   34.0260   43.7980 C   0  0  0  0  0  0  0  0  0  0  0  0
   70.5050   32.2980   41.7600 C   0  0  0  0  0  0  0  0  0  0  0  0
   68.6510   29.2880   42.6960 C   0  0  0  0  0  0  0  0  0  0  0  0
   65.6630   35.2760   49.0050 C   0  0  0  0  0  0  0  0  0  0  0  0
   69.0850   34.8580   47.4480 C   0  0  0  0  0  0  0  0  0  0  0  0
   71.7210   34.3450   43.6210 C   0  0  0  0  0  0  0  0  0  0  0  0
   69.4260   34.6030   45.9680 C   0  0  0  0  0  0  0  0  0  0  0  0
   66.3490   35.5860   47.7340 C   0  0  0  0  0  0  0  0  0  0  0  0
   72.0720   35.1120   44.7820 C   0  0  0  0  0  0  0  0  0  0  0  0
   73.7780   34.8400   44.6610 C   0  0  0  0  0  0  0  0  0  0  0  0
   68.8010   29.2900   41.1920 C   0  0  0  0  0  0  0  0  0  0  0  0
   67.6650   35.2120   47.4810 N   0  0  0  0  0  0  0  0  0  0  0  0
   70.2860   33.3600   41.9550 C   0  0  0  0  0  0  0  0  0  0  0  0
   76.1970   31.4860   44.5520 C   0  0  0  0  0  0  0  0  0  0  0  0
   69.6100   35.7860   45.2590 O   0  0  0  0  0  0  0  0  0  0  0  0
   69.1940   30.6780   40.9660 C   0  0  0  0  0  0  0  0  0  0  0  0
  2 12  1  0
  5 19  1  0
  5 14  1  0
  6 25  1  0
  6 21  1  0
  7  1  1  0
  9 13  2  0
 11 22  1  0
 11 28  1  0
 12 27  1  0
 14  2  1  0
 14 23  1  0
 15 26  1  0
 15  7  1  0
 16  1  1  0
 17 13  1  0
 17  3  1  0
 18 25  1  0
 19  4  1  0
 19 22  1  0
 20 18  1  0
 21 17  1  0
 22 10  1  0
 23 22  1  0
 24 16  1  0
 25 21  1  0
 26  4  1  0
 27  8  1  0
 28 20  1  0
 29 24  1  0
 29  7  1  0
M  END
$$$$

     RDKit          3D

 16 16  0  0  0  0  0  0  0  0999 V2000
   69.4600   33.3660   49.4470 C   0  0  0  0  0  0  0  0  0  0  0  0
   67.7430   32.9790   45.2320 N   0  0  0  0  0  0  0  0  0  0  0  0
   67.9780   33.9820   51.2380 C   0  0  0  0  0  0  0  0  0  0  0  0
   70.1870   34.5070   41.4880 O   0  0  0  0  0  0  0  0  0  0  0  0
   68.9440   34.3640   48.4700 C   0  0  0  0  0  0  0  0  0  0  0  0
   68.8470   33.7930   47.1200 C   0  0  0  0  0  0  0  0  0  0  0  0
   69.2650   34.1830   43.8680 C   0  0  0  0  0  0  0  0  0  0  0  0
   67.7320   33.9040   47.9720 O   0  0  0  0  0  0  0  0  0  0  0  0
   70.2720   32.3950   42.4100 O   0  0  0  0  0  0  0  0  0  0  0  0
   68.4150   33.0260   50.4370 N   0  0  0  0  0  0  0  0  0  0  0  0
   68.3460   34.1930   45.7430 C   0  0  0  0  0  0  0  0  0  0  0  0
   70.4580   33.7530   42.7260 S   0  0  0  0  0  0  0  0  0  0  0  0
   69.3150   34.7130   44.8410 N   0  0  0  0  0  0  0  0  0  0  0  0
   71.7590   33.9270   43.3530 O   0  0  0  0  0  0  0  0  0  0  0  0
   67.2190   32.2550   50.0500 C   0  0  0  0  0  0  0  0  0  0  0  0
   70.1720   35.7430   45.4160 C   0  0  0  0  0  0  0  0  0  0  0  0
  1 10  1  0
  4 12  1  0
  5  1  1  0
  6 11  1  0
  6  8  1  0
  6  5  1  0
  7 13  1  0
  8  5  1  0
  9 12  1  0
 10  3  1  0
 11  2  1  0
 12 14  1  0
 12  7  1  0
 13 16  1  0
 13 11  1  0
 15 10  1  0
M  END
$$$$
