
     RDKit          3D

  8  7  0  0  0  0  0  0  0  0999 V2000
   69.5230   41.0620   42.9050 C   0  0  0  0  0  0  0  0  0  0  0  0
   71.6190   42.6790   41.2790 C   0  0  0  0  0  0  0  0  0  0  0  0
   70.8730   41.4380   43.2260 C   0  0  0  0  0  0  0  0  0  0  0  0
   71.6980   41.2700   41.9890 C   0  0  0  0  0  0  0  0  0  0  0  0
   72.3740   43.6920   42.3150 O   0  0  0  0  0  0  0  0  0  0  0  0
   68.5740   40.5430   43.2610 O   0  0  0  0  0  0  0  0  0  0  0  0
   70.6330   42.9700   43.7690 O   0  0  0  0  0  0  0  0  0  0  0  0
   68.9760   40.9860   41.7600 O   0  0  0  0  0  0  0  0  0  0  0  0
  1  3  1  0
  1  6  1  0
  2  4  1  0
  2  5  1  0
  3  7  1  0
  4  3  1  0
  8  1  2  0
M  END
$$$$

     RDKit          3D

 10  9  0  0  0  0  0  0  0  0999 V2000
   69.5700   43.4510   43.4350 O   0  0  0  0  0  0  0  0  0  0  0  0
   68.2060   39.8640   47.0550 C   0  0  0  0  0  0  0  0  0  0  0  0
   69.5330   42.0130   41.5500 N   0  0  0  0  0  0  0  0  0  0  0  0
   69.1700   38.6710   46.8620 O   0  0  0  0  0  0  0  0  0  0  0  0
   67.9200   42.7490   43.2430 O   0  0  0  0  0  0  0  0  0  0  0  0
   68.8490   42.2680   43.1640 S   0  0  0  0  0  0  0  0  0  0  0  0
   67.2140   41.1740   45.5600 C   0  0  0  0  0  0  0  0  0  0  0  0
   69.4420   40.3290   45.0750 C   0  0  0  0  0  0  0  0  0  0  0  0
   68.5190   40.8980   46.0110 N   0  0  0  0  0  0  0  0  0  0  0  0
   69.4040   40.8070   43.6880 C   0  0  0  0  0  0  0  0  0  0  0  0
  3  6  1  0
  4  2  1  0
  6  5  2  0
  6  1  2  0
  6 10  1  0
  7  9  1  0
  8  9  1  0
  9  2  1  0
 10  8  1  0
M  END
$$$$

     RDKit          3D

 11 12  0  0  0  0  0  0  0  0999 V2000
   70.3910   43.5110   41.6150 C   0  0  0  0  0  0  0  0  0  0  0  0
   67.8210   41.7430   43.5260 C   0  0  0  0  0  0  0  0  0  0  0  0
   72.6180   43.3410   40.5680 C   0  0  0  0  0  0  0  0  0  0  0  0
   69.2870   42.1700   43.4300 C   0  0  0  0  0  0  0  0  0  0  0  0
   67.0620   42.2290   42.3930 C   0  0  0  0  0  0  0  0  0  0  0  0
   71.6770   42.8270   41.2630 C   0  0  0  0  0  0  0  0  0  0  0  0
   70.2290   41.9230   44.2120 O   0  0  0  0  0  0  0  0  0  0  0  0
   69.8390   44.3200   40.5490 O   0  0  0  0  0  0  0  0  0  0  0  0
   67.1230   43.4810   41.9280 C   0  0  0  0  0  0  0  0  0  0  0  0
   68.2530   42.4450   41.8330 C   0  0  0  0  0  0  0  0  0  0  0  0
   69.4370   42.6040   42.2480 N   0  0  0  0  0  0  0  0  0  0  0  0
  1  8  1  0
  1 11  1  0
  3  6  2  0
  4  2  1  0
  4  7  2  0
  5  9  1  0
  5  2  1  0
  6  1  1  0
 10  9  1  0
 10 11  1  0
 10  5  1  0
 11  4  1  0
M  END
$$$$

     RDKit          3D

 21 23  0  0  0  0  0  0  0  0999 V2000
   70.3950   42.6160   42.3070 C   0  0  0  0  0  0  0  0  0  0  0  0
   71.0000   39.7100   44.0460 C   0  0  0  0  0  0  0  0  0  0  0  0
   68.0710   40.7580   45.7480 C   0  0  0  0  0  0  0  0  0  0  0  0
   72.5080   47.5940   41.7240 O   0  0  0  0  0  0  0  0  0  0  0  0
   71.8520   46.4620   41.6740 C   0  0  0  0  0  0  0  0  0  0  0  0
   69.4280   39.4400   44.0790 C   0  0  0  0  0  0  0  0  0  0  0  0
   69.0750   40.8630   43.5010 C   0  0  0  0  0  0  0  0  0  0  0  0
   72.3570   45.4490   40.8640 C   0  0  0  0  0  0  0  0  0  0  0  0
   70.6610   46.2200   42.2540 N   0  0  0  0  0  0  0  0  0  0  0  0
   70.9300   43.9070   42.0840 C   0  0  0  0  0  0  0  0  0  0  0  0
   69.6970   37.7840   44.2080 C   0  0  0  0  0  0  0  0  0  0  0  0
   68.9770   39.5950   45.5290 C   0  0  0  0  0  0  0  0  0  0  0  0
   67.8960   42.9010   44.5330 C   0  0  0  0  0  0  0  0  0  0  0  0
   73.1900   44.7710   38.5870 C   0  0  0  0  0  0  0  0  0  0  0  0
   70.3320   41.5430   43.1880 N   0  0  0  0  0  0  0  0  0  0  0  0
   71.4660   41.0000   43.6290 N   0  0  0  0  0  0  0  0  0  0  0  0
   74.4030   46.2410   39.9500 C   0  0  0  0  0  0  0  0  0  0  0  0
   70.3030   44.9420   42.6300 C   0  0  0  0  0  0  0  0  0  0  0  0
   72.0440   44.1760   41.2170 C   0  0  0  0  0  0  0  0  0  0  0  0
   72.9090   46.0020   39.5410 C   0  0  0  0  0  0  0  0  0  0  0  0
   68.5640   41.6400   44.7060 N   0  0  0  0  0  0  0  0  0  0  0  0
  1 15  1  0
  2  6  1  0
  5  4  2  0
  5  9  1  0
  6 11  1  0
  6 12  1  0
  7 15  1  0
  7  6  1  0
  7 21  1  0
  8 20  1  0
  8 19  1  0
  8  5  1  0
  9 18  1  0
 10  1  1  0
 10 18  2  0
 12  3  1  0
 13 21  1  0
 14 20  1  0
 15 16  1  0
 16  2  1  0
 19 10  1  0
 20 17  1  0
 21  3  1  0
M  END
$$$$

     RDKit          3D

  6  6  0  0  0  0  0  0  0  0999 V2000
   69.0090   42.0440   43.3760 C   0  0  0  0  0  0  0  0  0  0  0  0
   68.3940   42.6610   42.2820 O   0  0  0  0  0  0  0  0  0  0  0  0
   69.5400   40.3540   45.2090 N   0  0  0  0  0  0  0  0  0  0  0  0
   68.6430   40.2870   44.0470 C   0  0  0  0  0  0  0  0  0  0  0  0
   69.5610   42.4260   44.3310 O   0  0  0  0  0  0  0  0  0  0  0  0
   69.0520   40.6290   42.7540 C   0  0  0  0  0  0  0  0  0  0  0  0
  1  4  1  0
  1  5  1  0
  2  1  1  0
  4  3  1  0
  6  1  1  0
  6  4  1  0
M  END
$$$$

     RDKit          3D

  9  8  0  0  0  0  0  0  0  0999 V2000
   69.9620   42.8150   43.0730 C   0  0  0  0  0  0  0  0  0  0  0  0
   72.2370   43.7570   43.5900 O   0  0  0  0  0  0  0  0  0  0  0  0
   70.2650   44.1690   42.9260 O   0  0  0  0  0  0  0  0  0  0  0  0
   71.1490   41.8120   42.8490 C   0  0  0  0  0  0  0  0  0  0  0  0
   71.5670   42.6970   43.0560 C   0  0  0  0  0  0  0  0  0  0  0  0
   71.0280   40.5460   42.3160 C   0  0  0  0  0  0  0  0  0  0  0  0
   69.7460   40.0860   42.2400 O   0  0  0  0  0  0  0  0  0  0  0  0
   69.2960   42.2940   44.1680 O   0  0  0  0  0  0  0  0  0  0  0  0
   71.8490   39.8140   41.6850 O   0  0  0  0  0  0  0  0  0  0  0  0
  1  8  1  0
  3  1  1  0
  4  5  2  0
  4  1  1  0
  5  2  2  0
  6  4  1  0
  7  6  1  0
  9  6  2  0
M  END
$$$$

     RDKit          3D

 21 22  0  0  0  0  0  0  0  0999 V2000
   71.4820   46.6500   40.4220 C   0  0  0  0  0  0  0  0  0  0  0  0
   71.4810   38.8530   43.7350 C   0  0  0  0  0  0  0  0  0  0  0  0
   69.8880   41.4720   44.0530 C   0  0  0  0  0  0  0  0  0  0  0  0
   71.0700   41.2450   43.1550 C   0  0  0  0  0  0  0  0  0  0  0  0
   67.8580   38.9400   46.0580 O   0  0  0  0  0  0  0  0  0  0  0  0
   71.3940   42.8840   41.8070 C   0  0  0  0  0  0  0  0  0  0  0  0
   69.3640   40.2810   44.7240 C   0  0  0  0  0  0  0  0  0  0  0  0
   72.0240   44.5390   42.0300 S   0  0  0  0  0  0  0  0  0  0  0  0
   66.5940   38.7920   46.2970 O   0  0  0  0  0  0  0  0  0  0  0  0
   71.1920   45.2630   40.8720 C   0  0  0  0  0  0  0  0  0  0  0  0
   71.4120   42.2860   41.0870 O   0  0  0  0  0  0  0  0  0  0  0  0
   71.8160   42.5400   43.3240 C   0  0  0  0  0  0  0  0  0  0  0  0
   72.3450   38.3570   44.8900 C   0  0  0  0  0  0  0  0  0  0  0  0
   70.6500   46.6540   38.2460 O   0  0  0  0  0  0  0  0  0  0  0  0
   70.1370   39.0570   44.3840 C   0  0  0  0  0  0  0  0  0  0  0  0
   69.6050   47.9200   39.9560 O   0  0  0  0  0  0  0  0  0  0  0  0
   71.7850   40.1890   43.1430 C   0  0  0  0  0  0  0  0  0  0  0  0
   67.1870   41.1310   46.3440 O   0  0  0  0  0  0  0  0  0  0  0  0
   70.3710   47.0930   39.4860 C   0  0  0  0  0  0  0  0  0  0  0  0
   68.0580   40.2610   44.3760 O   0  0  0  0  0  0  0  0  0  0  0  0
   68.0450   40.2840   45.5740 C   0  0  0  0  0  0  0  0  0  0  0  0
  1 10  1  0
  2 15  1  0
  2 13  1  0
  4 12  1  0
  4  3  1  0
  5  9  1  0
  6  8  1  0
  6 12  1  0
  7  3  1  0
  7 21  1  0
 10  8  1  0
 11  6  2  0
 14 19  2  0
 15  7  1  0
 17  4  1  0
 17  2  1  0
 19 16  1  0
 19  1  1  0
 20  7  1  0
 20 21  1  0
 21  5  1  0
 21 18  1  0
M  END
$$$$

     RDKit          3D

 12 12  0  0  0  0  0  0  0  0999 V2000
   70.5430   41.3420   42.1740 C   0  0  0  0  0  0  0  0  0  0  0  0
   73.1240   45.3670   40.9960 C   0  0  0  0  0  0  0  0  0  0  0  0
   70.2690   44.9740   41.1510 C   0  0  0  0  0  0  0  0  0  0  0  0
   73.5710   46.1180   40.1370 O   0  0  0  0  0  0  0  0  0  0  0  0
   72.8130   46.1550   42.2660 O   0  0  0  0  0  0  0  0  0  0  0  0
   71.7310   47.0390   42.0550 C   0  0  0  0  0  0  0  0  0  0  0  0
   70.5380   38.8740   42.6500 O   0  0  0  0  0  0  0  0  0  0  0  0
   70.8900   39.8800   41.6770 C   0  0  0  0  0  0  0  0  0  0  0  0
   70.7630   46.3140   41.6100 C   0  0  0  0  0  0  0  0  0  0  0  0
   71.7240   42.3020   41.8640 C   0  0  0  0  0  0  0  0  0  0  0  0
   71.3350   43.7320   41.2590 C   0  0  0  0  0  0  0  0  0  0  0  0
   72.6670   44.2010   40.9330 O   0  0  0  0  0  0  0  0  0  0  0  0
  2  5  1  0
  3 11  1  0
  3  9  2  0
  4  2  2  0
  6  5  1  0
  8  1  1  0
  8  7  1  0
  9  6  1  0
 10  1  1  0
 11 10  1  0
 12  2  1  0
 12 11  1  0
M  END
$$$$

     RDKit          3D

  7  6  0  0  0  0  0  0  0  0999 V2000
   69.0740   43.5690   40.1620 O   0  0  0  0  0  0  0  0  0  0  0  0
   70.4160   44.1470   41.6170 C   0  0  0  0  0  0  0  0  0  0  0  0
   70.3510   42.7360   42.2760 C   0  0  0  0  0  0  0  0  0  0  0  0
   69.5910   43.5720   41.3500 C   0  0  0  0  0  0  0  0  0  0  0  0
   70.6360   45.4330   40.6100 C   0  0  0  0  0  0  0  0  0  0  0  0
   69.9830   46.3350   41.3910 O   0  0  0  0  0  0  0  0  0  0  0  0
   68.2920   43.6870   42.2640 O   0  0  0  0  0  0  0  0  0  0  0  0
  1  4  1  0
  4  2  1  0
  4  7  1  0
  4  3  1  0
  5  6  1  0
  5  2  1  0
M  END
$$$$

     RDKit          3D

 25 26  0  0  0  0  0  0  0  0999 V2000
   66.3740   41.5900   47.6860 C   0  0  0  0  0  0  0  0  0  0  0  0
   68.1540   43.3560   45.6960 C   0  0  0  0  0  0  0  0  0  0  0  0
   62.6290   43.2360   50.4680 C   0  0  0  0  0  0  0  0  0  0  0  0
   73.0720   44.9140   42.8190 C   0  0  0  0  0  0  0  0  0  0  0  0
   67.2380   41.1150   46.4900 C   0  0  0  0  0  0  0  0  0  0  0  0
   62.8600   42.1260   49.5310 C   0  0  0  0  0  0  0  0  0  0  0  0
   61.6450   42.8840   49.4620 O   0  0  0  0  0  0  0  0  0  0  0  0
   74.0590   46.6130   41.5710 C   0  0  0  0  0  0  0  0  0  0  0  0
   75.5720   46.7350   39.8480 O   0  0  0  0  0  0  0  0  0  0  0  0
   67.1480   42.2510   45.2750 C   0  0  0  0  0  0  0  0  0  0  0  0
   73.1920   45.2580   40.5770 O   0  0  0  0  0  0  0  0  0  0  0  0
   74.0510   45.3930   41.7820 C   0  0  0  0  0  0  0  0  0  0  0  0
   69.4860   43.3360   44.9510 C   0  0  0  0  0  0  0  0  0  0  0  0
   70.4670   44.9960   43.0380 C   0  0  0  0  0  0  0  0  0  0  0  0
   74.1880   48.4740   40.1210 O   0  0  0  0  0  0  0  0  0  0  0  0
   70.6000   42.4150   45.3100 C   0  0  0  0  0  0  0  0  0  0  0  0
   71.9040   42.4850   44.6430 C   0  0  0  0  0  0  0  0  0  0  0  0
   74.5960   47.3920   40.5430 C   0  0  0  0  0  0  0  0  0  0  0  0
   75.0440   44.3240   41.0380 C   0  0  0  0  0  0  0  0  0  0  0  0
   63.9380   42.3140   48.3930 C   0  0  0  0  0  0  0  0  0  0  0  0
   72.1910   43.0280   43.3840 C   0  0  0  0  0  0  0  0  0  0  0  0
   64.8360   41.5160   47.4070 C   0  0  0  0  0  0  0  0  0  0  0  0
   62.4460   40.8050   49.7780 C   0  0  0  0  0  0  0  0  0  0  0  0
   71.9110   44.4420   43.0530 C   0  0  0  0  0  0  0  0  0  0  0  0
   69.5370   44.3610   43.8650 C   0  0  0  0  0  0  0  0  0  0  0  0
  4 24  1  0
  5  1  1  0
  6 23  1  0
  6  3  1  0
  7  6  1  0
  7  3  1  0
  8 12  1  0
  9 18  2  0
 10  2  1  0
 10  5  1  0
 11 12  1  0
 12 19  1  0
 12  4  1  0
 13 16  1  0
 13  2  1  0
 14 24  2  0
 14 25  1  0
 15 18  1  0
 17 16  1  0
 18  8  1  0
 20  6  1  0
 21 17  2  0
 22  1  1  0
 22 20  1  0
 24 21  1  0
 25 13  2  0
M  END
$$$$

     RDKit          3D

  2  1  0  0  0  0  0  0  0  0999 V2000
   70.2940   42.8390   43.3860 C   0  0  0  0  0  0  0  0  0  0  0  0
   71.8840   43.0830   42.9470 C   0  0  0  0  0  0  0  0  0  0  0  0
  2  1  1  0
M  END
$$$$

     RDKit          3D

  8  7  0  0  0  0  0  0  0  0999 V2000
   70.1450   42.4830   43.7760 C   0  0  0  0  0  0  0  0  0  0  0  0
   70.9260   42.1610   44.6910 O   0  0  0  0  0  0  0  0  0  0  0  0
   69.4030   42.5130   41.5590 O   0  0  0  0  0  0  0  0  0  0  0  0
   68.4090   41.2480   43.4960 O   0  0  0  0  0  0  0  0  0  0  0  0
   71.4090   43.5210   41.8990 O   0  0  0  0  0  0  0  0  0  0  0  0
   68.2710   40.3760   44.6830 C   0  0  0  0  0  0  0  0  0  0  0  0
   68.6750   42.5850   43.8760 C   0  0  0  0  0  0  0  0  0  0  0  0
   70.6510   42.4240   42.3900 C   0  0  0  0  0  0  0  0  0  0  0  0
  1  7  1  0
  1  2  2  0
  3  8  1  0
  4  7  1  0
  4  6  1  0
  5  8  1  0
  8  1  1  0
M  END
$$$$

     RDKit          3D

  1  0  0  0  0  0  0  0  0  0999 V2000
   56.1440  166.9610    7.6140 C   0  0  0  0  0  0  0  0  0  0  0  0
M  END
$$$$

     RDKit          3D

 10  9  0  0  0  0  0  0  0  0999 V2000
   69.4380   46.5250   40.8810 C   0  0  0  0  0  0  0  0  0  0  0  0
   70.4740   44.0650   40.3250 C   0  0  0  0  0  0  0  0  0  0  0  0
   70.5330   45.9090   41.7340 C   0  0  0  0  0  0  0  0  0  0  0  0
   71.4340   45.0470   40.8410 C   0  0  0  0  0  0  0  0  0  0  0  0
   72.7390   43.7860   42.4120 O   0  0  0  0  0  0  0  0  0  0  0  0
   74.8310   45.0100   43.6750 O   0  0  0  0  0  0  0  0  0  0  0  0
   73.7440   45.8080   41.7020 C   0  0  0  0  0  0  0  0  0  0  0  0
   74.9410   45.1640   42.2970 C   0  0  0  0  0  0  0  0  0  0  0  0
   75.6850   44.4120   41.8430 O   0  0  0  0  0  0  0  0  0  0  0  0
   72.6950   44.7260   41.6560 C   0  0  0  0  0  0  0  0  0  0  0  0
  1  3  1  0
  4  2  1  0
  4 10  1  0
  4  3  1  0
  7  8  1  0
  8  6  1  0
  9  8  2  0
 10  7  1  0
 10  5  2  0
M  END
$$$$

     RDKit          3D

 17 17  0  0  0  0  0  0  0  0999 V2000
   69.9160   42.7250   42.7420 O   0  0  0  0  0  0  0  0  0  0  0  0
   70.7040   37.5200   44.3660 C   0  0  0  0  0  0  0  0  0  0  0  0
   71.4540   38.7400   44.9380 C   0  0  0  0  0  0  0  0  0  0  0  0
   70.1990   37.3220   43.5460 C   0  0  0  0  0  0  0  0  0  0  0  0
   65.5770   45.6360   43.8450 C   0  0  0  0  0  0  0  0  0  0  0  0
   67.7470   41.8690   43.3070 N   0  0  0  0  0  0  0  0  0  0  0  0
   69.5820   38.4360   42.9990 O   0  0  0  0  0  0  0  0  0  0  0  0
   69.7270   40.1700   41.6220 O   0  0  0  0  0  0  0  0  0  0  0  0
   67.2340   43.1990   43.6830 C   0  0  0  0  0  0  0  0  0  0  0  0
   69.5680   39.6990   42.8170 C   0  0  0  0  0  0  0  0  0  0  0  0
   65.3380   44.4630   44.7300 C   0  0  0  0  0  0  0  0  0  0  0  0
   66.5800   43.6560   44.8580 C   0  0  0  0  0  0  0  0  0  0  0  0
   64.8540   46.7650   43.6090 N   0  0  0  0  0  0  0  0  0  0  0  0
   65.9380   44.9910   42.5320 C   0  0  0  0  0  0  0  0  0  0  0  0
   66.7800   43.8760   42.5610 C   0  0  0  0  0  0  0  0  0  0  0  0
   69.5300   40.5770   43.7910 C   0  0  0  0  0  0  0  0  0  0  0  0
   69.1720   41.9060   43.2890 C   0  0  0  0  0  0  0  0  0  0  0  0
  1 17  2  0
  2  3  1  0
  4  2  1  0
  5 13  1  0
  5 11  1  0
  6  9  1  0
  7  4  1  0
  8 10  2  0
  9 12  1  0
 10  7  1  0
 10 16  1  0
 11 12  1  0
 14 15  1  0
 14  5  1  0
 15  9  2  0
 17  6  1  0
 17 16  1  0
M  END
$$$$

     RDKit          3D

 10 10  0  0  0  0  0  0  0  0999 V2000
   70.1160   43.7720   41.5010 O   0  0  0  0  0  0  0  0  0  0  0  0
   69.9110   42.9620   42.6480 C   0  0  0  0  0  0  0  0  0  0  0  0
   68.7130   43.2740   43.5110 C   0  0  0  0  0  0  0  0  0  0  0  0
   69.1270   42.4830   44.6390 C   0  0  0  0  0  0  0  0  0  0  0  0
   71.0830   42.7330   43.3150 O   0  0  0  0  0  0  0  0  0  0  0  0
   70.4640   41.6980   42.9800 C   0  0  0  0  0  0  0  0  0  0  0  0
   69.1480   40.9030   43.2950 O   0  0  0  0  0  0  0  0  0  0  0  0
   70.9400   40.8400   42.1880 C   0  0  0  0  0  0  0  0  0  0  0  0
   68.0210   41.7990   45.4160 C   0  0  0  0  0  0  0  0  0  0  0  0
   68.4270   44.6960   43.6930 C   0  0  0  0  0  0  0  0  0  0  0  0
  2  1  1  0
  2  6  1  0
  2  5  1  0
  2  3  1  0
  3 10  1  0
  3  4  1  0
  4  9  1  0
  6  8  1  0
  6  7  1  0
  6  5  1  0
M  END
$$$$

     RDKit          3D

 11 12  0  0  0  0  0  0  0  0999 V2000
   71.3010   41.7950   42.7240 C   0  0  0  0  0  0  0  0  0  0  0  0
   69.7410   43.7750   40.5160 C   0  0  0  0  0  0  0  0  0  0  0  0
   69.4330   43.7000   42.8920 C   0  0  0  0  0  0  0  0  0  0  0  0
   70.5380   40.8310   40.8240 O   0  0  0  0  0  0  0  0  0  0  0  0
   72.0510   43.6400   44.2140 O   0  0  0  0  0  0  0  0  0  0  0  0
   68.6010   42.9880   40.1320 O   0  0  0  0  0  0  0  0  0  0  0  0
   71.0470   42.7330   43.9680 C   0  0  0  0  0  0  0  0  0  0  0  0
   69.6600   42.8450   44.0490 O   0  0  0  0  0  0  0  0  0  0  0  0
   69.4130   42.8310   41.5220 C   0  0  0  0  0  0  0  0  0  0  0  0
   72.7830   41.7260   42.3080 O   0  0  0  0  0  0  0  0  0  0  0  0
   70.3900   41.6180   41.7440 C   0  0  0  0  0  0  0  0  0  0  0  0
  1 10  1  0
  1  7  1  0
  3  8  1  0
  4 11  2  0
  6  2  1  0
  6  9  1  0
  7  8  1  0
  7  5  2  0
  9  2  1  0
  9 11  1  0
  9  3  1  0
 11  1  1  0
M  END
$$$$

     RDKit          3D

  8  9  0  0  0  0  0  0  0  0999 V2000
   70.0930   41.7590   42.1880 C   0  0  0  0  0  0  0  0  0  0  0  0
   70.8370   42.3640   41.0490 C   0  0  0  0  0  0  0  0  0  0  0  0
   68.8400   42.0780   44.9930 O   0  0  0  0  0  0  0  0  0  0  0  0
   71.1310   42.9550   42.6430 S   0  0  0  0  0  0  0  0  0  0  0  0
   70.6360   41.1230   43.3230 C   0  0  0  0  0  0  0  0  0  0  0  0
   71.1040   41.0170   41.2960 C   0  0  0  0  0  0  0  0  0  0  0  0
   69.6030   39.9640   44.9630 O   0  0  0  0  0  0  0  0  0  0  0  0
   69.5780   41.2270   44.5470 C   0  0  0  0  0  0  0  0  0  0  0  0
  1  4  1  0
  1  5  1  0
  2  6  1  0
  2  1  1  0
  2  4  1  0
  5  8  1  0
  6  1  1  0
  8  7  2  0
  8  3  1  0
M  END
$$$$

     RDKit          3D

  8  7  0  0  0  0  0  0  0  0999 V2000
   69.6970   44.5430   43.2450 O   0  0  0  0  0  0  0  0  0  0  0  0
   70.7920   41.4590   41.5690 O   0  0  0  0  0  0  0  0  0  0  0  0
   68.3560   42.3720   43.1060 N   0  0  0  0  0  0  0  0  0  0  0  0
   70.9820   44.9580   42.9010 C   0  0  0  0  0  0  0  0  0  0  0  0
   71.6920   43.9600   42.0440 S   0  0  0  0  0  0  0  0  0  0  0  0
   71.4330   41.5030   42.9060 O   0  0  0  0  0  0  0  0  0  0  0  0
   70.4840   42.6780   41.7540 C   0  0  0  0  0  0  0  0  0  0  0  0
   69.0770   42.5370   42.0620 C   0  0  0  0  0  0  0  0  0  0  0  0
  2  7  1  0
  2  6  1  0
  4  1  1  0
  5  4  1  0
  7  5  1  0
  7  8  1  0
  8  3  2  0
M  END
$$$$

     RDKit          3D

 12 11  0  0  0  0  0  0  0  0999 V2000
   72.2870   44.2970   41.6060 C   0  0  0  0  0  0  0  0  0  0  0  0
   74.6630   41.7550   43.0000 O   0  0  0  0  0  0  0  0  0  0  0  0
   73.9770   42.6090   42.2850 C   0  0  0  0  0  0  0  0  0  0  0  0
   72.7820   43.8040   44.1110 C   0  0  0  0  0  0  0  0  0  0  0  0
   68.4470   42.3980   43.0820 O   0  0  0  0  0  0  0  0  0  0  0  0
   69.4940   43.0770   43.7150 C   0  0  0  0  0  0  0  0  0  0  0  0
   70.0550   44.1500   42.7630 C   0  0  0  0  0  0  0  0  0  0  0  0
   72.3860   45.0870   40.6560 O   0  0  0  0  0  0  0  0  0  0  0  0
   73.3210   44.0190   42.6940 C   0  0  0  0  0  0  0  0  0  0  0  0
   69.0430   44.9780   42.2410 O   0  0  0  0  0  0  0  0  0  0  0  0
   71.0100   43.6340   41.7560 N   0  0  0  0  0  0  0  0  0  0  0  0
   72.2540   42.4090   44.3990 O   0  0  0  0  0  0  0  0  0  0  0  0
  1 11  1  0
  1  9  1  0
  3  9  1  0
  3  2  1  0
  4 12  1  0
  5  6  1  0
  7 10  1  0
  7  6  1  0
  8  1  2  0
  9  4  1  0
 11  7  1  0
M  END
$$$$
