
     RDKit          3D

 10  9  0  0  0  0  0  0  0  0999 V2000
   72.1200   39.3490   45.6440 C   0  0  0  0  0  0  0  0  0  0  0  0
   68.7270   41.1970   47.1180 O   0  0  0  0  0  0  0  0  0  0  0  0
   71.4420   41.0550   47.1580 C   0  0  0  0  0  0  0  0  0  0  0  0
   71.7360   42.3920   47.2540 C   0  0  0  0  0  0  0  0  0  0  0  0
   72.3230   39.9950   47.0390 N   0  0  0  0  0  0  0  0  0  0  0  0
   73.6550   40.3260   47.4160 C   0  0  0  0  0  0  0  0  0  0  0  0
   70.3960   42.7970   47.6130 C   0  0  0  0  0  0  0  0  0  0  0  0
   69.7590   39.4390   48.0410 O   0  0  0  0  0  0  0  0  0  0  0  0
   72.6330   43.1700   46.4690 C   0  0  0  0  0  0  0  0  0  0  0  0
   69.9060   40.5130   47.1500 C   0  0  0  0  0  0  0  0  0  0  0  0
  1  5  1  0
  2 10  2  0
  3 10  1  0
  3  4  1  0
  4  7  1  0
  5  3  1  0
  5  6  1  0
  9  4  1  0
 10  8  1  0
M  END
$$$$

     RDKit          3D

 33 37  0  0  0  0  0  0  0  0999 V2000
   66.6540   40.6990   49.3750 C   0  0  0  0  0  0  0  0  0  0  0  0
   72.6940   43.5780   46.2110 C   0  0  0  0  0  0  0  0  0  0  0  0
   63.7740   42.6850   57.8960 N   0  0  0  0  0  0  0  0  0  0  0  0
   71.3690   41.6180   47.5400 C   0  0  0  0  0  0  0  0  0  0  0  0
   64.1880   44.7350   57.5320 C   0  0  0  0  0  0  0  0  0  0  0  0
   67.8080   42.7510   48.0240 C   0  0  0  0  0  0  0  0  0  0  0  0
   63.7910   42.1850   56.5020 C   0  0  0  0  0  0  0  0  0  0  0  0
   66.9770   43.0050   49.0360 N   0  0  0  0  0  0  0  0  0  0  0  0
   64.4680   43.2560   55.5460 C   0  0  0  0  0  0  0  0  0  0  0  0
   68.2210   41.3930   47.8410 C   0  0  0  0  0  0  0  0  0  0  0  0
   64.8530   44.5250   56.2940 C   0  0  0  0  0  0  0  0  0  0  0  0
   67.2950   39.3850   47.5900 N   0  0  0  0  0  0  0  0  0  0  0  0
   65.6250   41.8160   53.0850 N   0  0  0  0  0  0  0  0  0  0  0  0
   65.8730   41.8150   51.8610 C   0  0  0  0  0  0  0  0  0  0  0  0
   71.3350   43.5710   45.9580 N   0  0  0  0  0  0  0  0  0  0  0  0
   69.5190   40.7080   45.8050 C   0  0  0  0  0  0  0  0  0  0  0  0
   71.1680   42.2620   46.2340 C   0  0  0  0  0  0  0  0  0  0  0  0
   64.6420   43.2580   50.8820 C   0  0  0  0  0  0  0  0  0  0  0  0
   64.4650   40.8440   56.3730 C   0  0  0  0  0  0  0  0  0  0  0  0
   61.6210   43.5720   58.3310 C   0  0  0  0  0  0  0  0  0  0  0  0
   64.9990   42.9740   53.0540 C   0  0  0  0  0  0  0  0  0  0  0  0
   67.4460   40.4340   48.3200 C   0  0  0  0  0  0  0  0  0  0  0  0
   63.4830   42.5440   59.2820 C   0  0  0  0  0  0  0  0  0  0  0  0
   64.3850   43.8160   52.0410 N   0  0  0  0  0  0  0  0  0  0  0  0
   70.5110   41.4630   45.1670 C   0  0  0  0  0  0  0  0  0  0  0  0
   73.4580   42.6760   45.8050 O   0  0  0  0  0  0  0  0  0  0  0  0
   62.9700   43.8910   57.7330 C   0  0  0  0  0  0  0  0  0  0  0  0
   70.3750   40.3810   47.0470 C   0  0  0  0  0  0  0  0  0  0  0  0
   64.9410   43.5650   54.2770 N   0  0  0  0  0  0  0  0  0  0  0  0
   66.3910   42.0320   49.6940 C   0  0  0  0  0  0  0  0  0  0  0  0
   73.1980   44.7450   46.4760 C   0  0  0  0  0  0  0  0  0  0  0  0
   65.5050   42.2900   50.8270 C   0  0  0  0  0  0  0  0  0  0  0  0
   69.2200   41.1590   47.0430 N   0  0  0  0  0  0  0  0  0  0  0  0
  1 30  1  0
  2 31  1  0
  3 23  1  0
  5 27  1  0
  6  8  1  0
  7 19  1  0
  7  3  1  0
  8 30  2  0
  9 11  1  0
  9  7  1  0
 10  6  2  0
 10 22  1  0
 11  5  1  0
 12 22  1  0
 14 13  1  0
 15  2  1  0
 16 25  1  0
 16 33  1  0
 16 28  1  0
 17 15  1  0
 17  4  1  0
 18 24  1  0
 21 13  2  0
 21 29  1  0
 22  1  2  0
 24 21  2  0
 25 17  1  0
 26  2  2  0
 27  3  1  0
 27 20  1  0
 28  4  1  0
 29  9  2  3
 30 32  1  0
 32 18  1  0
 32 14  2  0
 33 28  1  0
 33 10  1  0
M  END
$$$$

     RDKit          3D

  8  7  0  0  0  0  0  0  0  0999 V2000
   66.9140   40.4590   51.8070 C   0  0  0  0  0  0  0  0  0  0  0  0
   68.4350   39.9430   49.0000 C   0  0  0  0  0  0  0  0  0  0  0  0
   65.2920   39.5510   54.4720 S   0  0  0  0  0  0  0  0  0  0  0  0
   66.4220   40.5130   50.3720 C   0  0  0  0  0  0  0  0  0  0  0  0
   65.8720   40.0830   52.7530 C   0  0  0  0  0  0  0  0  0  0  0  0
   67.5270   40.8350   49.4600 C   0  0  0  0  0  0  0  0  0  0  0  0
   69.0330   39.9830   47.7050 N   0  0  0  0  0  0  0  0  0  0  0  0
   64.3450   40.6080   55.2980 C   0  0  0  0  0  0  0  0  0  0  0  0
  1  5  1  0
  2  6  1  0
  3  8  1  0
  4  1  1  0
  5  3  1  0
  6  4  1  0
  7  2  1  0
M  END
$$$$

     RDKit          3D

 29 30  0  0  0  0  0  0  0  0999 V2000
   71.2430   42.4180   48.2990 C   0  0  0  0  0  0  0  0  0  0  0  0
   71.8630   41.2880   47.4610 C   0  0  0  0  0  0  0  0  0  0  0  0
   70.5440   40.7930   46.8390 C   0  0  0  0  0  0  0  0  0  0  0  0
   60.1330   38.1440   53.4410 C   0  0  0  0  0  0  0  0  0  0  0  0
   57.5820   37.4430   52.4320 C   0  0  0  0  0  0  0  0  0  0  0  0
   67.1700   43.7670   47.6890 N   0  0  0  0  0  0  0  0  0  0  0  0
   60.3050   36.9600   54.1690 O   0  0  0  0  0  0  0  0  0  0  0  0
   66.0550   44.4150   48.3570 C   0  0  0  0  0  0  0  0  0  0  0  0
   65.1690   42.0420   51.1500 C   0  0  0  0  0  0  0  0  0  0  0  0
   68.6950   42.1680   48.7330 C   0  0  0  0  0  0  0  0  0  0  0  0
   73.9600   42.2030   46.8290 C   0  0  0  0  0  0  0  0  0  0  0  0
   64.2000   40.5190   52.7450 C   0  0  0  0  0  0  0  0  0  0  0  0
   65.6680   42.4520   49.8100 C   0  0  0  0  0  0  0  0  0  0  0  0
   63.9050   41.2140   51.5190 C   0  0  0  0  0  0  0  0  0  0  0  0
   69.9910   42.1130   47.8620 C   0  0  0  0  0  0  0  0  0  0  0  0
   67.8650   42.9000   48.1470 C   0  0  0  0  0  0  0  0  0  0  0  0
   69.6970   41.8980   46.4010 C   0  0  0  0  0  0  0  0  0  0  0  0
   63.2670   39.3230   52.8610 C   0  0  0  0  0  0  0  0  0  0  0  0
   58.5870   37.1380   52.3660 C   0  0  0  0  0  0  0  0  0  0  0  0
   61.1360   39.0720   53.9730 C   0  0  0  0  0  0  0  0  0  0  0  0
   65.4730   43.7030   49.3640 C   0  0  0  0  0  0  0  0  0  0  0  0
   74.6810   40.1230   46.8000 O   0  0  0  0  0  0  0  0  0  0  0  0
   61.5390   41.1470   52.9180 C   0  0  0  0  0  0  0  0  0  0  0  0
   61.9080   39.8430   53.0160 N   0  0  0  0  0  0  0  0  0  0  0  0
   72.5960   41.8860   46.2260 C   0  0  0  0  0  0  0  0  0  0  0  0
   61.2920   39.1700   55.1730 O   0  0  0  0  0  0  0  0  0  0  0  0
   59.9570   37.8100   52.3170 C   0  0  0  0  0  0  0  0  0  0  0  0
   56.9440   38.7100   51.9240 C   0  0  0  0  0  0  0  0  0  0  0  0
   74.4900   41.0090   47.5040 C   0  0  0  0  0  0  0  0  0  0  0  0
  2 25  1  0
  2  1  1  0
  3 17  1  0
  3  2  1  0
  3 15  1  0
  4 20  1  0
  4  7  1  0
  6 16  1  0
  6  8  1  0
  8 21  1  0
  9 14  1  0
 11 29  1  0
 12 18  1  0
 13  9  1  0
 14 12  1  0
 15  1  1  0
 15 10  1  0
 16 10  1  0
 17 15  1  0
 18 24  1  0
 19  5  1  0
 20 26  2  0
 21 13  2  3
 22 29  1  0
 23 24  1  0
 24 20  1  0
 25 11  1  0
 27 19  1  0
 27  4  1  0
 28  5  1  0
M  END
$$$$

     RDKit          3D

  9  9  0  0  0  0  0  0  0  0999 V2000
   71.4110   42.0560   47.3300 N   0  0  0  0  0  0  0  0  0  0  0  0
   69.7770   43.5780   45.3550 O   0  0  0  0  0  0  0  0  0  0  0  0
   70.5830   42.9350   47.4400 C   0  0  0  0  0  0  0  0  0  0  0  0
   68.9410   42.4410   45.3840 C   0  0  0  0  0  0  0  0  0  0  0  0
   68.0410   40.8430   47.0780 N   0  0  0  0  0  0  0  0  0  0  0  0
   69.2800   41.3860   46.4060 C   0  0  0  0  0  0  0  0  0  0  0  0
   70.1810   42.2580   47.1240 C   0  0  0  0  0  0  0  0  0  0  0  0
   71.0140   41.0940   47.8010 O   0  0  0  0  0  0  0  0  0  0  0  0
   70.9070   44.3590   47.8820 O   0  0  0  0  0  0  0  0  0  0  0  0
  1  3  1  0
  1  8  1  0
  2  4  1  0
  3  9  2  0
  4  6  1  0
  6  5  1  0
  7  6  1  0
  7  3  1  0
  7  8  1  0
M  END
$$$$

     RDKit          3D

 14 15  0  0  0  0  0  0  0  0999 V2000
   71.9850   42.4070   47.9910 C   0  0  0  0  0  0  0  0  0  0  0  0
   68.2830   42.4400   46.1770 C   0  0  0  0  0  0  0  0  0  0  0  0
   70.6090   42.4820   47.4740 C   0  0  0  0  0  0  0  0  0  0  0  0
   70.2260   40.4250   48.6560 C   0  0  0  0  0  0  0  0  0  0  0  0
   68.4430   41.2480   47.2080 C   0  0  0  0  0  0  0  0  0  0  0  0
   69.3220   42.8680   45.2000 N   0  0  0  0  0  0  0  0  0  0  0  0
   72.3530   41.4910   48.8340 C   0  0  0  0  0  0  0  0  0  0  0  0
   71.4900   40.4670   49.1630 C   0  0  0  0  0  0  0  0  0  0  0  0
   70.3500   43.9330   47.1420 C   0  0  0  0  0  0  0  0  0  0  0  0
   69.6950   44.2170   45.0380 C   0  0  0  0  0  0  0  0  0  0  0  0
   69.7110   41.7370   44.2880 C   0  0  0  0  0  0  0  0  0  0  0  0
   67.8780   40.2400   48.3010 C   0  0  0  0  0  0  0  0  0  0  0  0
   69.8780   41.4200   47.6730 C   0  0  0  0  0  0  0  0  0  0  0  0
   69.0780   39.4590   48.8680 C   0  0  0  0  0  0  0  0  0  0  0  0
  1  7  1  0
  3 13  1  0
  3  1  2  0
  4 14  1  0
  4  8  1  0
  5  2  1  0
  5 13  1  0
  5 12  1  0
  6  2  1  0
  7  8  2  0
  9  3  1  0
 10  6  1  0
 11  6  1  0
 12 14  1  0
 13  4  2  0
M  END
$$$$

     RDKit          3D

  8  7  0  0  0  0  0  0  0  0999 V2000
   69.5170   42.2930   46.7510 O   0  0  0  0  0  0  0  0  0  0  0  0
   71.0510   40.0040   46.1720 C   0  0  0  0  0  0  0  0  0  0  0  0
   69.0390   41.4290   47.5520 C   0  0  0  0  0  0  0  0  0  0  0  0
   68.0260   41.6070   48.2840 O   0  0  0  0  0  0  0  0  0  0  0  0
   70.6630   40.2340   45.2230 O   0  0  0  0  0  0  0  0  0  0  0  0
   72.0170   39.4550   47.2690 O   0  0  0  0  0  0  0  0  0  0  0  0
   69.6330   39.0630   48.0150 O   0  0  0  0  0  0  0  0  0  0  0  0
   70.0470   40.3680   47.5080 C   0  0  0  0  0  0  0  0  0  0  0  0
  1  3  2  0
  2  6  1  0
  2  8  1  0
  3  4  1  0
  5  2  2  0
  8  3  1  0
  8  7  1  0
M  END
$$$$

     RDKit          3D

  9  9  0  0  0  0  0  0  0  0999 V2000
   69.7410   42.1970   47.8540 C   0  0  0  0  0  0  0  0  0  0  0  0
   71.4780   42.0120   47.4420 S   0  0  0  0  0  0  0  0  0  0  0  0
   69.5910   42.7250   45.5260 O   0  0  0  0  0  0  0  0  0  0  0  0
   68.3030   40.1890   48.6100 O   0  0  0  0  0  0  0  0  0  0  0  0
   69.9660   43.0350   46.8190 C   0  0  0  0  0  0  0  0  0  0  0  0
   69.3070   44.3500   46.7920 O   0  0  0  0  0  0  0  0  0  0  0  0
   66.4520   41.2860   49.4960 C   0  0  0  0  0  0  0  0  0  0  0  0
   68.4240   41.2590   47.6520 C   0  0  0  0  0  0  0  0  0  0  0  0
   67.0840   40.7610   48.3220 C   0  0  0  0  0  0  0  0  0  0  0  0
  1  2  1  0
  3  5  1  0
  5  1  1  0
  6  5  1  0
  8  1  1  0
  8  9  1  0
  8  4  1  0
  9  4  1  0
  9  7  1  0
M  END
$$$$

     RDKit          3D

 15 16  0  0  0  0  0  0  0  0999 V2000
   68.9720   40.9990   49.4320 C   0  0  0  0  0  0  0  0  0  0  0  0
   68.5260   40.1020   51.8110 C   0  0  0  0  0  0  0  0  0  0  0  0
   61.2850   41.9970   59.6980 C   0  0  0  0  0  0  0  0  0  0  0  0
   63.4080   40.0980   56.6970 C   0  0  0  0  0  0  0  0  0  0  0  0
   65.7670   40.5920   55.9120 C   0  0  0  0  0  0  0  0  0  0  0  0
   67.5240   40.5160   49.7780 O   0  0  0  0  0  0  0  0  0  0  0  0
   67.8410   40.5720   52.7070 C   0  0  0  0  0  0  0  0  0  0  0  0
   61.3550   41.5790   60.9370 O   0  0  0  0  0  0  0  0  0  0  0  0
   68.3670   40.4790   50.5440 C   0  0  0  0  0  0  0  0  0  0  0  0
   66.8890   40.2950   53.6560 C   0  0  0  0  0  0  0  0  0  0  0  0
   64.3370   40.5490   55.5190 C   0  0  0  0  0  0  0  0  0  0  0  0
   66.8250   40.0660   55.0160 C   0  0  0  0  0  0  0  0  0  0  0  0
   63.5690   41.3920   60.4280 O   0  0  0  0  0  0  0  0  0  0  0  0
   62.7320   40.6940   58.0830 C   0  0  0  0  0  0  0  0  0  0  0  0
   62.3560   41.1760   59.8090 C   0  0  0  0  0  0  0  0  0  0  0  0
  1  6  1  0
  1  9  1  0
  2  7  1  0
  3 15  1  0
  3  8  1  0
  4 14  1  0
  6  9  1  0
  7 10  1  0
  9  2  1  0
 10 12  1  0
 11  5  1  0
 11  4  1  0
 12  5  1  0
 14 15  1  0
 15 13  1  0
 15  8  1  0
M  END
$$$$

     RDKit          3D

 31 33  0  0  0  0  0  0  0  0999 V2000
   63.6400   44.8590   52.7790 C   0  0  0  0  0  0  0  0  0  0  0  0
   59.2080   47.4980   56.6400 C   0  0  0  0  0  0  0  0  0  0  0  0
   71.7100   37.1130   48.3600 F   0  0  0  0  0  0  0  0  0  0  0  0
   66.3500   41.8650   51.7230 C   0  0  0  0  0  0  0  0  0  0  0  0
   70.1600   36.4710   46.9990 F   0  0  0  0  0  0  0  0  0  0  0  0
   66.6010   43.2250   51.3000 C   0  0  0  0  0  0  0  0  0  0  0  0
   70.6010   39.9990   47.6110 N   0  0  0  0  0  0  0  0  0  0  0  0
   62.9200   43.5450   54.6580 C   0  0  0  0  0  0  0  0  0  0  0  0
   72.2240   37.4110   46.3520 F   0  0  0  0  0  0  0  0  0  0  0  0
   65.7490   41.8820   53.0080 C   0  0  0  0  0  0  0  0  0  0  0  0
   70.6420   38.7140   47.1590 C   0  0  0  0  0  0  0  0  0  0  0  0
   71.9390   41.2170   46.5410 C   0  0  0  0  0  0  0  0  0  0  0  0
   60.7300   46.2540   54.2900 C   0  0  0  0  0  0  0  0  0  0  0  0
   61.2120   46.6690   55.6140 C   0  0  0  0  0  0  0  0  0  0  0  0
   66.7880   40.7880   51.3160 O   0  0  0  0  0  0  0  0  0  0  0  0
   67.7970   42.2080   49.4490 O   0  0  0  0  0  0  0  0  0  0  0  0
   64.6870   43.9950   52.5760 C   0  0  0  0  0  0  0  0  0  0  0  0
   68.5930   41.4840   49.0500 C   0  0  0  0  0  0  0  0  0  0  0  0
   60.6030   47.8980   56.1960 C   0  0  0  0  0  0  0  0  0  0  0  0
   59.4680   48.3900   55.5730 N   0  0  0  0  0  0  0  0  0  0  0  0
   62.7550   44.6270   53.8570 C   0  0  0  0  0  0  0  0  0  0  0  0
   71.0720   37.3310   47.3290 C   0  0  0  0  0  0  0  0  0  0  0  0
   67.2010   43.2850   49.9140 C   0  0  0  0  0  0  0  0  0  0  0  0
   69.6870   41.9530   48.1010 C   0  0  0  0  0  0  0  0  0  0  0  0
   61.6930   49.0300   56.3860 C   0  0  0  0  0  0  0  0  0  0  0  0
   61.6400   45.3510   53.6440 C   0  0  0  0  0  0  0  0  0  0  0  0
   71.0350   41.1770   47.7850 C   0  0  0  0  0  0  0  0  0  0  0  0
   63.9000   42.6070   54.3680 C   0  0  0  0  0  0  0  0  0  0  0  0
   64.7770   42.8340   53.3060 C   0  0  0  0  0  0  0  0  0  0  0  0
   69.6220   39.2550   48.1780 C   0  0  0  0  0  0  0  0  0  0  0  0
   62.0590   46.1530   56.2930 O   0  0  0  0  0  0  0  0  0  0  0  0
  1 21  1  0
  4 10  1  0
  5 22  1  0
  6  4  1  0
  7 27  1  0
  7 30  1  0
  9 22  1  0
 10 29  1  0
 11 22  1  0
 11  7  1  0
 11 30  1  0
 13 14  1  0
 14 19  1  0
 14 31  2  0
 15  4  2  0
 16 23  1  0
 17  1  2  0
 17 29  1  0
 18 16  1  0
 19 25  1  0
 19  2  1  0
 20 19  1  0
 20  2  1  0
 21  8  2  0
 22  3  1  0
 23  6  1  0
 24 18  2  3
 26 21  1  0
 26 13  1  0
 27 12  1  0
 27 24  1  0
 28  8  1  0
 29 28  2  0
M  END
$$$$

     RDKit          3D

 16 16  0  0  0  0  0  0  0  0999 V2000
   65.6860   43.1160   52.2650 N   0  0  0  0  0  0  0  0  0  0  0  0
   64.7980   43.3840   54.8920 O   0  0  0  0  0  0  0  0  0  0  0  0
   71.5460   43.2170   48.5480 O   0  0  0  0  0  0  0  0  0  0  0  0
   67.4060   42.2460   51.1740 C   0  0  0  0  0  0  0  0  0  0  0  0
   66.3700   42.0090   51.9660 C   0  0  0  0  0  0  0  0  0  0  0  0
   64.2860   43.1110   52.8180 C   0  0  0  0  0  0  0  0  0  0  0  0
   70.7390   42.7640   47.7550 C   0  0  0  0  0  0  0  0  0  0  0  0
   70.5690   43.1510   46.5260 O   0  0  0  0  0  0  0  0  0  0  0  0
   63.8240   43.4460   54.1790 C   0  0  0  0  0  0  0  0  0  0  0  0
   66.3300   44.1900   51.8530 C   0  0  0  0  0  0  0  0  0  0  0  0
   69.7390   41.7580   48.3460 C   0  0  0  0  0  0  0  0  0  0  0  0
   67.6800   40.2580   49.6320 N   0  0  0  0  0  0  0  0  0  0  0  0
   62.4690   43.2310   54.8460 C   0  0  0  0  0  0  0  0  0  0  0  0
   67.9330   41.4090   50.0470 C   0  0  0  0  0  0  0  0  0  0  0  0
   68.7780   42.2850   49.2450 N   0  0  0  0  0  0  0  0  0  0  0  0
   67.3700   43.7080   51.1220 C   0  0  0  0  0  0  0  0  0  0  0  0
  1  6  1  0
  4  5  2  0
  5  1  1  0
  6  9  1  0
  7 11  1  0
  7  3  1  0
  8  7  2  0
  9 13  1  0
  9  2  2  0
 10  1  1  0
 11 15  2  3
 12 14  2  0
 14  4  1  0
 15 14  1  0
 16  4  1  0
 16 10  2  0
M  END
$$$$

     RDKit          3D

 10  9  0  0  0  0  0  0  0  0999 V2000
   71.0900   41.7560   48.0560 C   0  0  0  0  0  0  0  0  0  0  0  0
   70.2970   39.2130   45.3310 O   0  0  0  0  0  0  0  0  0  0  0  0
   71.5350   40.8960   47.0480 C   0  0  0  0  0  0  0  0  0  0  0  0
   72.0610   42.3520   48.8280 O   0  0  0  0  0  0  0  0  0  0  0  0
   70.2740   40.7020   48.6870 O   0  0  0  0  0  0  0  0  0  0  0  0
   72.6930   40.2440   44.9470 O   0  0  0  0  0  0  0  0  0  0  0  0
   69.2970   41.2270   45.5290 O   0  0  0  0  0  0  0  0  0  0  0  0
   70.3420   40.5070   45.2570 C   0  0  0  0  0  0  0  0  0  0  0  0
   71.5200   41.2280   45.6040 C   0  0  0  0  0  0  0  0  0  0  0  0
   72.6680   40.0960   47.4750 O   0  0  0  0  0  0  0  0  0  0  0  0
  1  5  1  0
  1  4  1  0
  3 10  1  0
  3  1  1  0
  8  2  2  0
  8  7  1  0
  8  9  1  0
  9  6  1  0
  9  3  1  0
M  END
$$$$

     RDKit          3D

 20 22  0  0  0  0  0  0  0  0999 V2000
   63.1960   44.6520   53.7810 C   0  0  0  0  0  0  0  0  0  0  0  0
   65.9820   41.8310   49.4130 C   0  0  0  0  0  0  0  0  0  0  0  0
   71.3030   38.4890   47.5120 O   0  0  0  0  0  0  0  0  0  0  0  0
   63.9920   43.3390   51.4110 C   0  0  0  0  0  0  0  0  0  0  0  0
   71.2990   39.9440   47.0950 O   0  0  0  0  0  0  0  0  0  0  0  0
   67.1330   41.2130   48.8530 C   0  0  0  0  0  0  0  0  0  0  0  0
   70.7990   39.6140   47.9600 C   0  0  0  0  0  0  0  0  0  0  0  0
   64.8180   43.1820   50.8250 N   0  0  0  0  0  0  0  0  0  0  0  0
   66.9820   42.2850   51.0240 C   0  0  0  0  0  0  0  0  0  0  0  0
   62.6360   43.3090   53.3410 C   0  0  0  0  0  0  0  0  0  0  0  0
   63.3790   44.2150   52.3900 C   0  0  0  0  0  0  0  0  0  0  0  0
   70.0880   40.1010   49.0410 C   0  0  0  0  0  0  0  0  0  0  0  0
   68.3230   41.3100   48.1450 C   0  0  0  0  0  0  0  0  0  0  0  0
   69.6040   40.7540   49.9960 O   0  0  0  0  0  0  0  0  0  0  0  0
   64.0650   45.3290   51.9650 O   0  0  0  0  0  0  0  0  0  0  0  0
   66.7000   43.9480   50.5070 N   0  0  0  0  0  0  0  0  0  0  0  0
   68.4580   41.5350   49.4310 C   0  0  0  0  0  0  0  0  0  0  0  0
   60.9640   44.2740   54.5200 O   0  0  0  0  0  0  0  0  0  0  0  0
   62.0370   44.2970   54.1830 C   0  0  0  0  0  0  0  0  0  0  0  0
   66.0640   42.8420   50.4220 C   0  0  0  0  0  0  0  0  0  0  0  0
  1 19  1  0
  2 20  1  0
  3  7  1  0
  4 11  1  0
  5  7  2  0
  6  2  1  0
  6 17  1  0
  7 12  1  0
  8  4  1  0
 10  1  1  0
 10 19  1  0
 11 15  1  0
 11 10  1  0
 11  1  1  0
 12 14  1  0
 13  6  1  0
 13 17  1  0
 17 14  1  0
 19 18  2  0
 20 16  1  0
 20  8  1  0
 20  9  1  0
M  END
$$$$

     RDKit          3D

  7  7  0  0  0  0  0  0  0  0999 V2000
   72.4440   41.7490   47.6340 C   0  0  0  0  0  0  0  0  0  0  0  0
   72.2870   40.7850   46.5890 C   0  0  0  0  0  0  0  0  0  0  0  0
   67.5500   41.9390   47.2790 N   0  0  0  0  0  0  0  0  0  0  0  0
   70.5660   40.7210   46.2080 S   0  0  0  0  0  0  0  0  0  0  0  0
   70.0850   41.6840   47.7790 C   0  0  0  0  0  0  0  0  0  0  0  0
   68.6580   42.1180   47.5870 C   0  0  0  0  0  0  0  0  0  0  0  0
   71.1530   42.2070   48.2890 C   0  0  0  0  0  0  0  0  0  0  0  0
  1  7  1  0
  2  1  1  0
  3  6  2  0
  4  2  1  0
  4  5  1  0
  5  6  1  0
  5  7  1  0
M  END
$$$$

     RDKit          3D

 30 31  0  0  0  0  0  0  0  0999 V2000
   66.7030   41.2180   53.1300 C   0  0  0  0  0  0  0  0  0  0  0  0
   65.0080   43.6240   55.9360 C   0  0  0  0  0  0  0  0  0  0  0  0
   63.4800   46.2300   57.9080 C   0  0  0  0  0  0  0  0  0  0  0  0
   66.1450   41.6790   49.9190 C   0  0  0  0  0  0  0  0  0  0  0  0
   71.6030   39.2620   44.7720 O   0  0  0  0  0  0  0  0  0  0  0  0
   73.5490   41.1350   45.1810 C   0  0  0  0  0  0  0  0  0  0  0  0
   61.7610   44.6570   53.9790 C   0  0  0  0  0  0  0  0  0  0  0  0
   62.8930   43.9250   53.3710 C   0  0  0  0  0  0  0  0  0  0  0  0
   72.4490   40.8980   47.4020 N   0  0  0  0  0  0  0  0  0  0  0  0
   73.5460   40.4360   46.5750 C   0  0  0  0  0  0  0  0  0  0  0  0
   63.7140   43.2410   53.8810 C   0  0  0  0  0  0  0  0  0  0  0  0
   63.8100   44.8800   57.3760 C   0  0  0  0  0  0  0  0  0  0  0  0
   63.8690   40.9820   53.8370 C   0  0  0  0  0  0  0  0  0  0  0  0
   61.6160   45.2450   56.1900 O   0  0  0  0  0  0  0  0  0  0  0  0
   71.3750   39.1700   45.9990 C   0  0  0  0  0  0  0  0  0  0  0  0
   62.4170   44.8800   55.3290 C   0  0  0  0  0  0  0  0  0  0  0  0
   60.4870   43.8940   54.2290 C   0  0  0  0  0  0  0  0  0  0  0  0
   68.7140   39.9830   47.9480 C   0  0  0  0  0  0  0  0  0  0  0  0
   71.1720   40.4170   46.9120 C   0  0  0  0  0  0  0  0  0  0  0  0
   67.2340   41.2050   49.9160 C   0  0  0  0  0  0  0  0  0  0  0  0
   70.2620   39.8710   48.0310 C   0  0  0  0  0  0  0  0  0  0  0  0
   71.4100   37.9230   46.5080 O   0  0  0  0  0  0  0  0  0  0  0  0
   68.0090   39.9470   49.2900 C   0  0  0  0  0  0  0  0  0  0  0  0
   61.6900   45.8890   53.1100 C   0  0  0  0  0  0  0  0  0  0  0  0
   69.4170   40.7780   48.9770 C   0  0  0  0  0  0  0  0  0  0  0  0
   65.6170   41.7220   52.1910 C   0  0  0  0  0  0  0  0  0  0  0  0
   64.4080   42.1600   53.0780 C   0  0  0  0  0  0  0  0  0  0  0  0
   73.5890   39.2670   47.3520 O   0  0  0  0  0  0  0  0  0  0  0  0
   63.8380   44.5090   55.8820 C   0  0  0  0  0  0  0  0  0  0  0  0
   65.3280   40.9590   51.0030 C   0  0  0  0  0  0  0  0  0  0  0  0
  4 30  1  0
  5 15  2  0
  6 10  1  0
  7 17  1  0
  7 16  1  0
  8 11  1  0
  8  7  1  0
 10 28  2  0
 10  9  1  0
 12  3  1  0
 15 22  1  0
 15 19  1  0
 16 29  1  0
 16 14  2  0
 18 21  1  0
 18 25  1  0
 18 23  1  0
 19  9  1  0
 19 21  1  0
 20  4  1  0
 21 25  1  0
 23 20  1  0
 24  7  1  0
 25 23  1  0
 26 27  1  0
 26  1  1  0
 27 13  1  0
 27 11  1  0
 29  2  1  0
 29 12  1  0
 30 26  1  0
M  END
$$$$

     RDKit          3D

  6  5  0  0  0  0  0  0  0  0999 V2000
   67.6400   39.6360   48.3190 O   0  0  0  0  0  0  0  0  0  0  0  0
   68.5640   40.4310   48.5730 C   0  0  0  0  0  0  0  0  0  0  0  0
   70.3190   38.9450   48.5700 O   0  0  0  0  0  0  0  0  0  0  0  0
   70.2620   40.7600   47.2900 O   0  0  0  0  0  0  0  0  0  0  0  0
   69.8000   40.1140   48.2030 C   0  0  0  0  0  0  0  0  0  0  0  0
   68.4700   41.6000   48.9400 O   0  0  0  0  0  0  0  0  0  0  0  0
  1  2  2  0
  2  6  1  0
  4  5  2  0
  5  3  1  0
  5  2  1  0
M  END
$$$$

     RDKit          3D

 20 23  0  0  0  0  0  0  0  0999 V2000
   64.4560   42.6400   51.7020 C   0  0  0  0  0  0  0  0  0  0  0  0
   65.6990   41.8400   49.7650 N   0  0  0  0  0  0  0  0  0  0  0  0
   65.1630   43.9940   51.8060 C   0  0  0  0  0  0  0  0  0  0  0  0
   70.7320   42.8380   45.0760 O   0  0  0  0  0  0  0  0  0  0  0  0
   65.5480   44.1510   53.1730 O   0  0  0  0  0  0  0  0  0  0  0  0
   66.8880   42.6640   49.9240 C   0  0  0  0  0  0  0  0  0  0  0  0
   71.0340   42.9550   48.4580 C   0  0  0  0  0  0  0  0  0  0  0  0
   70.4460   40.9700   46.7030 C   0  0  0  0  0  0  0  0  0  0  0  0
   69.3060   40.0840   46.9860 N   0  0  0  0  0  0  0  0  0  0  0  0
   67.6930   42.3150   51.1760 C   0  0  0  0  0  0  0  0  0  0  0  0
   68.2850   40.3610   47.9380 C   0  0  0  0  0  0  0  0  0  0  0  0
   70.0370   42.0750   47.6900 C   0  0  0  0  0  0  0  0  0  0  0  0
   68.3070   42.2170   49.7700 C   0  0  0  0  0  0  0  0  0  0  0  0
   71.6170   38.7010   46.5600 C   0  0  0  0  0  0  0  0  0  0  0  0
   70.2940   41.4560   45.2270 C   0  0  0  0  0  0  0  0  0  0  0  0
   65.9790   40.5180   49.5790 C   0  0  0  0  0  0  0  0  0  0  0  0
   68.8480   42.8770   47.3910 C   0  0  0  0  0  0  0  0  0  0  0  0
   70.3360   39.4730   46.8780 C   0  0  0  0  0  0  0  0  0  0  0  0
   68.7420   41.7630   48.3630 C   0  0  0  0  0  0  0  0  0  0  0  0
   64.3800   42.2400   50.2200 C   0  0  0  0  0  0  0  0  0  0  0  0
  1  3  1  0
  2 20  1  0
  3  5  1  0
  4 15  1  0
  6  2  1  0
  6 10  1  0
  8 15  1  0
  8 18  1  0
  8  9  1  0
  8 12  1  0
  9 11  1  0
 11 19  1  0
 12 19  1  0
 12  7  1  0
 13  6  1  0
 13 10  1  0
 16  2  1  0
 17 12  1  0
 18 14  1  0
 18  9  1  0
 19 17  1  0
 19 13  1  0
 20  1  1  0
M  END
$$$$

     RDKit          3D

 14 14  0  0  0  0  0  0  0  0999 V2000
   71.3890   41.1750   48.2890 C   0  0  0  0  0  0  0  0  0  0  0  0
   68.7110   43.9060   45.1290 O   0  0  0  0  0  0  0  0  0  0  0  0
   73.2140   42.4600   47.6830 O   0  0  0  0  0  0  0  0  0  0  0  0
   69.9530   41.1290   47.7760 C   0  0  0  0  0  0  0  0  0  0  0  0
   69.4050   41.9870   46.6470 C   0  0  0  0  0  0  0  0  0  0  0  0
   67.9830   41.6970   44.9590 O   0  0  0  0  0  0  0  0  0  0  0  0
   72.4760   41.5400   47.3610 C   0  0  0  0  0  0  0  0  0  0  0  0
   67.7820   41.4870   48.8190 O   0  0  0  0  0  0  0  0  0  0  0  0
   67.2800   43.1870   46.6580 O   0  0  0  0  0  0  0  0  0  0  0  0
   73.1650   39.4330   48.7240 C   0  0  0  0  0  0  0  0  0  0  0  0
   72.5290   40.3620   47.8350 C   0  0  0  0  0  0  0  0  0  0  0  0
   70.6130   42.6340   46.5260 O   0  0  0  0  0  0  0  0  0  0  0  0
   68.3070   42.8730   46.1800 C   0  0  0  0  0  0  0  0  0  0  0  0
   69.1390   41.4760   48.9240 O   0  0  0  0  0  0  0  0  0  0  0  0
  1  4  1  0
  2 13  1  0
  4 14  1  0
  5 12  1  0
  5  4  1  0
  6 13  1  0
  7  3  1  0
  7 11  1  0
  7  1  1  0
  8 14  1  0
 11  1  1  0
 11 10  1  0
 13  5  1  0
 13  9  1  0
M  END
$$$$

     RDKit          3D

 12 12  0  0  0  0  0  0  0  0999 V2000
   66.7410   43.3490   50.0280 O   0  0  0  0  0  0  0  0  0  0  0  0
   67.9060   38.9150   51.4550 C   0  0  0  0  0  0  0  0  0  0  0  0
   66.9240   39.2110   52.2150 C   0  0  0  0  0  0  0  0  0  0  0  0
   67.0610   41.2170   51.7100 C   0  0  0  0  0  0  0  0  0  0  0  0
   66.2150   40.4750   52.3420 C   0  0  0  0  0  0  0  0  0  0  0  0
   67.0040   44.8830   51.8580 O   0  0  0  0  0  0  0  0  0  0  0  0
   67.6040   42.5060   51.8910 O   0  0  0  0  0  0  0  0  0  0  0  0
   68.3060   37.4920   51.0540 C   0  0  0  0  0  0  0  0  0  0  0  0
   66.6800   43.5360   51.4370 P   0  0  0  0  0  0  0  0  0  0  0  0
   65.2380   43.2960   52.0790 O   0  0  0  0  0  0  0  0  0  0  0  0
   69.5100   36.8010   51.4040 N   0  0  0  0  0  0  0  0  0  0  0  0
   68.3680   40.4590   50.8960 S   0  0  0  0  0  0  0  0  0  0  0  0
  1  9  2  0
  2  8  1  0
  2  3  1  0
  3  5  1  0
  4  7  1  0
  4  5  1  0
  8 11  1  0
  9  6  1  0
  9  7  1  0
  9 10  1  0
 12  2  1  0
 12  4  1  0
M  END
$$$$

     RDKit          3D

 12 11  0  0  0  0  0  0  0  0999 V2000
   67.6010   41.0020   48.2880 C   0  0  0  0  0  0  0  0  0  0  0  0
   66.9740   41.0910   49.6670 C   0  0  0  0  0  0  0  0  0  0  0  0
   65.0640   41.7130   51.0710 C   0  0  0  0  0  0  0  0  0  0  0  0
   62.9330   42.7060   52.8720 O   0  0  0  0  0  0  0  0  0  0  0  0
   65.5900   41.6770   49.6790 C   0  0  0  0  0  0  0  0  0  0  0  0
   67.6660   42.0510   47.5710 O   0  0  0  0  0  0  0  0  0  0  0  0
   64.6100   43.0250   51.2800 C   0  0  0  0  0  0  0  0  0  0  0  0
   62.5620   45.7070   52.5610 C   0  0  0  0  0  0  0  0  0  0  0  0
   62.0840   44.6060   50.2940 C   0  0  0  0  0  0  0  0  0  0  0  0
   62.8760   44.6080   51.5850 C   0  0  0  0  0  0  0  0  0  0  0  0
   63.4230   43.4070   52.0260 C   0  0  0  0  0  0  0  0  0  0  0  0
   65.1510   40.8030   51.8880 O   0  0  0  0  0  0  0  0  0  0  0  0
  1  2  1  0
  2  5  1  0
  3  7  1  0
  3 12  2  0
  5  3  1  0
  6  1  2  0
  7 11  1  0
  9 10  1  0
 10 11  1  0
 10  8  1  0
 11  4  2  0
M  END
$$$$
