
     RDKit          3D

 21 23  0  0  0  0  0  0  0  0999 V2000
   30.4130   40.2710   24.6570 C   0  0  0  0  0  0  0  0  0  0  0  0
   41.2840   41.6960   23.9870 C   0  0  0  0  0  0  0  0  0  0  0  0
   31.8480   40.5660   25.1560 C   0  0  0  0  0  0  0  0  0  0  0  0
   41.1280   41.8610   27.9130 O   0  0  0  0  0  0  0  0  0  0  0  0
   35.4130   40.5910   24.6730 N   0  0  0  0  0  0  0  0  0  0  0  0
   32.8920   41.2580   24.2500 C   0  0  0  0  0  0  0  0  0  0  0  0
   36.3210   39.6760   24.8370 C   0  0  0  0  0  0  0  0  0  0  0  0
   35.0300   41.1340   23.4310 O   0  0  0  0  0  0  0  0  0  0  0  0
   32.8320   39.7600   24.2740 C   0  0  0  0  0  0  0  0  0  0  0  0
   40.9170   41.9240   25.4670 C   0  0  0  0  0  0  0  0  0  0  0  0
   33.7320   42.0810   25.2630 C   0  0  0  0  0  0  0  0  0  0  0  0
   39.6140   40.9370   25.5640 N   0  0  0  0  0  0  0  0  0  0  0  0
   36.3800   38.8430   23.9270 O   0  0  0  0  0  0  0  0  0  0  0  0
   37.6990   39.9390   27.2000 C   0  0  0  0  0  0  0  0  0  0  0  0
   37.6230   38.7320   26.7380 N   0  0  0  0  0  0  0  0  0  0  0  0
   41.9470   41.8390   26.7420 C   0  0  0  0  0  0  0  0  0  0  0  0
   35.0470   41.2460   25.8240 C   0  0  0  0  0  0  0  0  0  0  0  0
   39.9820   39.7000   26.3170 C   0  0  0  0  0  0  0  0  0  0  0  0
   36.9010   39.5830   25.9790 N   0  0  0  0  0  0  0  0  0  0  0  0
   40.4350   40.6810   23.4170 O   0  0  0  0  0  0  0  0  0  0  0  0
   39.0950   40.7360   26.9890 C   0  0  0  0  0  0  0  0  0  0  0  0
  2 10  1  0
  3  1  1  0
  5  7  1  0
  5 17  1  0
  6  9  1  0
  6  3  1  0
  6 11  1  0
  7 19  1  0
  8  5  1  0
  9  3  1  0
 10 12  1  0
 10 16  1  0
 11 17  1  0
 12 18  1  0
 12 21  1  0
 13  7  2  0
 14 15  1  0
 16  4  1  0
 19 15  1  0
 19 14  1  0
 20  2  1  0
 21 18  1  0
 21 14  1  0
M  END
$$$$

     RDKit          3D

 12 12  0  0  0  0  0  0  0  0999 V2000
   37.9440   42.5100   24.7520 C   0  0  0  0  0  0  0  0  0  0  0  0
   36.9810   41.8710   25.1200 C   0  0  0  0  0  0  0  0  0  0  0  0
   38.5810   44.4110   24.3450 Br  0  0  0  0  0  0  0  0  0  0  0  0
   34.3890   41.7140   25.4030 C   0  0  0  0  0  0  0  0  0  0  0  0
   38.8750   40.3680   25.8040 N   0  0  0  0  0  0  0  0  0  0  0  0
   39.0750   41.7250   25.2690 C   0  0  0  0  0  0  0  0  0  0  0  0
   37.5840   39.7720   25.9020 C   0  0  0  0  0  0  0  0  0  0  0  0
   41.5700   41.1920   25.5190 C   0  0  0  0  0  0  0  0  0  0  0  0
   35.0880   40.4070   25.6880 C   0  0  0  0  0  0  0  0  0  0  0  0
   37.4640   38.6200   26.3200 O   0  0  0  0  0  0  0  0  0  0  0  0
   36.5620   40.7030   25.5130 C   0  0  0  0  0  0  0  0  0  0  0  0
   40.3930   42.1330   25.4800 N   0  0  0  0  0  0  0  0  0  0  0  0
  1  3  1  0
  1  2  1  0
  1  6  1  0
  2 11  1  0
  4  9  1  0
  5  7  1  0
  6 12  1  0
  6  5  2  0
  7 10  2  0
 11  9  1  0
 11  7  1  0
 12  8  1  0
M  END
$$$$

     RDKit          3D

 13 14  0  0  0  0  0  0  0  0999 V2000
   37.6970   42.7380   24.2950 S   0  0  0  0  0  0  0  0  0  0  0  0
   35.9980   43.0890   24.1180 C   0  0  0  0  0  0  0  0  0  0  0  0
   36.7990   38.1850   24.7060 Cl  0  0  0  0  0  0  0  0  0  0  0  0
   39.8730   41.1540   24.1280 S   0  0  0  0  0  0  0  0  0  0  0  0
   39.4950   40.5400   25.7210 C   0  0  0  0  0  0  0  0  0  0  0  0
   38.0890   39.9480   26.0710 C   0  0  0  0  0  0  0  0  0  0  0  0
   37.0520   40.0280   24.8570 C   0  0  0  0  0  0  0  0  0  0  0  0
   37.9490   41.1670   23.8640 C   0  0  0  0  0  0  0  0  0  0  0  0
   34.0600   42.1500   25.2840 O   0  0  0  0  0  0  0  0  0  0  0  0
   38.2750   39.0280   27.2320 O   0  0  0  0  0  0  0  0  0  0  0  0
   35.5330   40.4960   24.7240 O   0  0  0  0  0  0  0  0  0  0  0  0
   40.4220   40.5500   26.5320 O   0  0  0  0  0  0  0  0  0  0  0  0
   35.1170   41.9490   24.7170 C   0  0  0  0  0  0  0  0  0  0  0  0
  2  1  1  0
  2 13  1  0
  4  5  1  0
  5  6  1  0
  5 12  2  0
  6 10  1  0
  7  3  1  0
  7  6  1  0
  8  4  1  0
  8  1  1  0
  8  7  1  0
 11  7  1  0
 13 11  1  0
 13  9  2  0
M  END
$$$$

     RDKit          3D

 15 14  0  0  0  0  0  0  0  0999 V2000
   37.6100   42.1360   26.6850 O   0  0  0  0  0  0  0  0  0  0  0  0
   39.3900   38.5220   27.5000 O   0  0  0  0  0  0  0  0  0  0  0  0
   41.1760   40.2710   25.0660 O   0  0  0  0  0  0  0  0  0  0  0  0
   39.2650   43.9580   24.0820 O   0  0  0  0  0  0  0  0  0  0  0  0
   37.7960   41.6940   25.3420 C   0  0  0  0  0  0  0  0  0  0  0  0
   36.4260   39.8000   26.3260 C   0  0  0  0  0  0  0  0  0  0  0  0
   38.0450   39.3980   26.8240 C   0  0  0  0  0  0  0  0  0  0  0  0
   39.9770   41.7280   25.1210 C   0  0  0  0  0  0  0  0  0  0  0  0
   39.9300   40.6670   25.8910 C   0  0  0  0  0  0  0  0  0  0  0  0
   40.0710   40.9300   22.9170 O   0  0  0  0  0  0  0  0  0  0  0  0
   40.0190   41.9800   23.6070 C   0  0  0  0  0  0  0  0  0  0  0  0
   38.7100   42.4630   25.2550 N   0  0  0  0  0  0  0  0  0  0  0  0
   35.6280   40.7700   25.9330 O   0  0  0  0  0  0  0  0  0  0  0  0
   38.7130   39.7470   25.5080 C   0  0  0  0  0  0  0  0  0  0  0  0
   39.5290   43.1690   23.2050 C   0  0  0  0  0  0  0  0  0  0  0  0
  5  1  1  0
  6  7  1  0
  7  2  1  0
  8 11  1  0
  8 12  1  0
  8  9  1  0
  9  3  1  0
 10 11  2  0
 12  5  1  0
 13  6  1  0
 14  9  1  0
 14  7  1  0
 15 11  1  0
 15  4  2  0
M  END
$$$$

     RDKit          3D

 17 18  0  0  0  0  0  0  0  0999 V2000
   39.0360   40.3140   27.4080 O   0  0  0  0  0  0  0  0  0  0  0  0
   39.3520   42.9430   23.0950 S   0  0  0  0  0  0  0  0  0  0  0  0
   39.2770   40.0070   26.1630 S   0  0  0  0  0  0  0  0  0  0  0  0
   39.8140   42.6400   25.7480 N   0  0  0  0  0  0  0  0  0  0  0  0
   36.7470   39.1580   25.2470 C   0  0  0  0  0  0  0  0  0  0  0  0
   35.5080   41.3450   25.7650 C   0  0  0  0  0  0  0  0  0  0  0  0
   33.1470   40.4590   24.5050 C   0  0  0  0  0  0  0  0  0  0  0  0
   39.8510   42.0810   24.5350 C   0  0  0  0  0  0  0  0  0  0  0  0
   37.9980   39.9250   24.9340 C   0  0  0  0  0  0  0  0  0  0  0  0
   35.4970   40.0490   25.1480 C   0  0  0  0  0  0  0  0  0  0  0  0
   38.2040   41.5880   22.8060 C   0  0  0  0  0  0  0  0  0  0  0  0
   34.3450   42.2120   25.7370 C   0  0  0  0  0  0  0  0  0  0  0  0
   34.3420   39.6450   24.4840 C   0  0  0  0  0  0  0  0  0  0  0  0
   40.6900   41.0770   24.3480 N   0  0  0  0  0  0  0  0  0  0  0  0
   33.1610   41.7250   25.1200 C   0  0  0  0  0  0  0  0  0  0  0  0
   38.1350   40.5670   23.6810 C   0  0  0  0  0  0  0  0  0  0  0  0
   40.8350   40.1150   25.4630 C   0  0  0  0  0  0  0  0  0  0  0  0
  2  8  1  0
  3  1  2  0
  7 15  1  0
  8  4  1  0
  9  5  1  0
  9  3  1  0
 10  5  1  0
 10  6  2  0
 11  2  1  0
 11 16  2  0
 12  6  1  0
 13  7  2  0
 13 10  1  0
 14  8  1  0
 14 17  1  0
 15 12  2  0
 16  9  2  0
 17  3  1  0
M  END
$$$$

     RDKit          3D

 11 10  0  0  0  0  0  0  0  0999 V2000
   36.0710   41.4040   24.9970 C   0  0  0  0  0  0  0  0  0  0  0  0
   36.7940   40.7860   26.0000 N   0  0  0  0  0  0  0  0  0  0  0  0
   35.1670   41.6250   22.9050 O   0  0  0  0  0  0  0  0  0  0  0  0
   38.1760   39.5220   24.3400 C   0  0  0  0  0  0  0  0  0  0  0  0
   38.2360   38.0960   29.0630 N   0  0  0  0  0  0  0  0  0  0  0  0
   37.4410   38.7580   28.0420 C   0  0  0  0  0  0  0  0  0  0  0  0
   39.4860   37.5370   28.5710 C   0  0  0  0  0  0  0  0  0  0  0  0
   35.7570   42.9670   24.9270 C   0  0  0  0  0  0  0  0  0  0  0  0
   37.5610   39.7190   25.7050 C   0  0  0  0  0  0  0  0  0  0  0  0
   38.0290   38.9200   26.7990 C   0  0  0  0  0  0  0  0  0  0  0  0
   35.4370   42.9210   23.4120 C   0  0  0  0  0  0  0  0  0  0  0  0
  1  2  1  0
  3 11  1  0
  6  5  1  0
  7  5  1  0
  8  1  1  0
  9  4  1  0
  9  2  1  0
  9 10  1  0
 10  6  2  3
 11  8  1  0
M  END
$$$$

     RDKit          3D

  8  7  0  0  0  0  0  0  0  0999 V2000
   40.0330   41.0060   27.1880 C   0  0  0  0  0  0  0  0  0  0  0  0
   39.0690   42.5920   25.5460 C   0  0  0  0  0  0  0  0  0  0  0  0
   39.2520   41.1160   25.7720 C   0  0  0  0  0  0  0  0  0  0  0  0
   39.9160   40.3690   24.6910 N   0  0  0  0  0  0  0  0  0  0  0  0
   40.2880   43.3880   25.0690 C   0  0  0  0  0  0  0  0  0  0  0  0
   41.6080   42.9380   25.2420 O   0  0  0  0  0  0  0  0  0  0  0  0
   37.9450   42.9770   24.7510 O   0  0  0  0  0  0  0  0  0  0  0  0
   40.0700   39.6770   27.6850 O   0  0  0  0  0  0  0  0  0  0  0  0
  1  8  1  0
  2  7  1  0
  2  3  1  0
  3  4  1  0
  3  1  1  0
  5  6  1  0
  5  2  1  0
M  END
$$$$

     RDKit          3D

  8  7  0  0  0  0  0  0  0  0999 V2000
   37.6650   41.0150   25.8360 C   0  0  0  0  0  0  0  0  0  0  0  0
   39.7440   40.0900   26.2860 O   0  0  0  0  0  0  0  0  0  0  0  0
   35.6790   40.4030   26.3170 C   0  0  0  0  0  0  0  0  0  0  0  0
   35.9870   40.5560   23.9740 C   0  0  0  0  0  0  0  0  0  0  0  0
   39.2310   40.4490   24.1360 O   0  0  0  0  0  0  0  0  0  0  0  0
   37.1130   38.7410   25.0580 O   0  0  0  0  0  0  0  0  0  0  0  0
   36.6470   40.1000   25.2370 C   0  0  0  0  0  0  0  0  0  0  0  0
   39.0140   40.5390   25.3570 C   0  0  0  0  0  0  0  0  0  0  0  0
  4  7  1  0
  5  8  2  0
  6  7  1  0
  7  1  1  0
  7  3  1  0
  8  1  1  0
  8  2  1  0
M  END
$$$$

     RDKit          3D

 10 11  0  0  0  0  0  0  0  0999 V2000
   41.1960   41.5000   23.2930 O   0  0  0  0  0  0  0  0  0  0  0  0
   36.1490   42.3540   25.2480 O   0  0  0  0  0  0  0  0  0  0  0  0
   38.7310   39.0320   27.0870 N   0  0  0  0  0  0  0  0  0  0  0  0
   39.7410   41.0420   22.7400 C   0  0  0  0  0  0  0  0  0  0  0  0
   39.5520   40.8090   25.5080 C   0  0  0  0  0  0  0  0  0  0  0  0
   38.3620   40.3110   26.3720 C   0  0  0  0  0  0  0  0  0  0  0  0
   36.3740   40.9960   24.8490 C   0  0  0  0  0  0  0  0  0  0  0  0
   37.5170   40.6810   23.8790 C   0  0  0  0  0  0  0  0  0  0  0  0
   37.3180   39.9650   25.2290 C   0  0  0  0  0  0  0  0  0  0  0  0
   38.9640   41.2970   24.0610 C   0  0  0  0  0  0  0  0  0  0  0  0
  4  1  1  0
  4 10  1  0
  5  6  1  0
  6  3  1  0
  7  9  1  0
  7  2  1  0
  8 10  1  0
  8  7  1  0
  8  9  1  0
  9  6  1  0
 10  5  1  0
M  END
$$$$

     RDKit          3D

  5  4  0  0  0  0  0  0  0  0999 V2000
   37.6830   39.9710   25.8900 C   0  0  0  0  0  0  0  0  0  0  0  0
   36.7000   38.9190   25.8920 N   0  0  0  0  0  0  0  0  0  0  0  0
   38.4770   39.9210   24.5770 C   0  0  0  0  0  0  0  0  0  0  0  0
   37.0170   41.3160   26.0540 C   0  0  0  0  0  0  0  0  0  0  0  0
   38.5260   39.6840   27.0410 O   0  0  0  0  0  0  0  0  0  0  0  0
  1  2  1  0
  1  4  1  0
  1  5  1  0
  3  1  1  0
M  END
$$$$

     RDKit          3D

 12 12  0  0  0  0  0  0  0  0999 V2000
   36.2430   42.6450   25.1360 C   0  0  0  0  0  0  0  0  0  0  0  0
   38.3170   38.5420   27.6740 C   0  0  0  0  0  0  0  0  0  0  0  0
   36.5830   39.9860   25.8410 N   0  0  0  0  0  0  0  0  0  0  0  0
   40.5790   39.4970   27.3260 C   0  0  0  0  0  0  0  0  0  0  0  0
   40.8940   41.5010   25.2940 C   0  0  0  0  0  0  0  0  0  0  0  0
   35.1690   41.7900   25.1530 C   0  0  0  0  0  0  0  0  0  0  0  0
   38.8440   40.4340   26.4030 C   0  0  0  0  0  0  0  0  0  0  0  0
   35.3350   40.4670   25.5070 C   0  0  0  0  0  0  0  0  0  0  0  0
   37.4980   42.1690   25.4950 C   0  0  0  0  0  0  0  0  0  0  0  0
   37.6200   40.8620   25.8850 C   0  0  0  0  0  0  0  0  0  0  0  0
   39.8980   41.5800   26.3250 C   0  0  0  0  0  0  0  0  0  0  0  0
   39.3230   39.1050   26.7610 N   0  0  0  0  0  0  0  0  0  0  0  0
  1  6  2  0
  1  9  1  0
  3 10  1  0
  5 11  1  0
  6  8  1  0
  7 11  1  0
  7 12  1  0
  8  3  2  0
  9 10  2  0
 10  7  1  0
 12  4  1  0
 12  2  1  0
M  END
$$$$

     RDKit          3D

 15 16  0  0  0  0  0  0  0  0999 V2000
   40.6960   40.8100   24.5860 C   0  0  0  0  0  0  0  0  0  0  0  0
   35.4000   41.9810   25.0050 C   0  0  0  0  0  0  0  0  0  0  0  0
   35.6710   39.6090   24.2460 C   0  0  0  0  0  0  0  0  0  0  0  0
   39.5000   39.8190   26.8530 N   0  0  0  0  0  0  0  0  0  0  0  0
   34.6150   42.5710   23.9300 C   0  0  0  0  0  0  0  0  0  0  0  0
   34.0240   41.4230   24.8570 C   0  0  0  0  0  0  0  0  0  0  0  0
   34.2250   40.1210   23.9900 C   0  0  0  0  0  0  0  0  0  0  0  0
   37.6940   38.3120   28.3240 C   0  0  0  0  0  0  0  0  0  0  0  0
   36.3390   40.7840   24.8480 N   0  0  0  0  0  0  0  0  0  0  0  0
   38.1700   39.6550   26.1890 C   0  0  0  0  0  0  0  0  0  0  0  0
   38.4680   41.6940   24.8100 O   0  0  0  0  0  0  0  0  0  0  0  0
   37.1110   39.2130   27.2450 C   0  0  0  0  0  0  0  0  0  0  0  0
   37.6520   40.8180   25.2390 C   0  0  0  0  0  0  0  0  0  0  0  0
   39.4080   40.8760   27.9040 C   0  0  0  0  0  0  0  0  0  0  0  0
   40.6890   40.1030   25.9480 C   0  0  0  0  0  0  0  0  0  0  0  0
  1 15  1  0
  2  5  1  0
  3  9  1  0
  4 14  1  0
  6  5  1  0
  6  2  1  0
  7  3  1  0
  7  6  1  0
  9  2  1  0
  9 13  1  0
 10  4  1  0
 10 12  1  0
 11 13  2  0
 12  8  1  0
 13 10  1  0
 15  4  1  0
M  END
$$$$

     RDKit          3D

 10 11  0  0  0  0  0  0  0  0999 V2000
   35.1770   41.7350   25.6230 C   0  0  0  0  0  0  0  0  0  0  0  0
   35.3760   40.3410   25.2060 C   0  0  0  0  0  0  0  0  0  0  0  0
   37.3990   42.5360   25.1220 C   0  0  0  0  0  0  0  0  0  0  0  0
   37.1670   38.9900   24.5840 O   0  0  0  0  0  0  0  0  0  0  0  0
   39.4790   39.9080   24.0640 C   0  0  0  0  0  0  0  0  0  0  0  0
   36.8200   40.2190   24.8470 C   0  0  0  0  0  0  0  0  0  0  0  0
   36.1020   42.7380   25.5310 C   0  0  0  0  0  0  0  0  0  0  0  0
   38.6430   39.0000   24.4980 N   0  0  0  0  0  0  0  0  0  0  0  0
   39.0830   41.0580   24.5210 N   0  0  0  0  0  0  0  0  0  0  0  0
   37.7750   41.1680   24.7770 C   0  0  0  0  0  0  0  0  0  0  0  0
  2  1  2  0
  3  7  2  0
  4  6  1  0
  5  8  1  0
  5  9  1  0
  6  2  1  0
  7  1  1  0
  8  4  1  0
  9 10  1  0
 10  6  2  0
 10  3  1  0
M  END
$$$$

     RDKit          3D

  8  8  0  0  0  0  0  0  0  0999 V2000
   35.9290   40.9880   25.6720 C   0  0  0  0  0  0  0  0  0  0  0  0
   36.8860   39.0760   24.9490 O   0  0  0  0  0  0  0  0  0  0  0  0
   35.8720   41.9650   24.4810 C   0  0  0  0  0  0  0  0  0  0  0  0
   34.7280   42.8440   24.5850 O   0  0  0  0  0  0  0  0  0  0  0  0
   37.2990   40.4430   25.5870 C   0  0  0  0  0  0  0  0  0  0  0  0
   37.9750   38.5690   27.0930 O   0  0  0  0  0  0  0  0  0  0  0  0
   37.6660   39.2180   26.2270 C   0  0  0  0  0  0  0  0  0  0  0  0
   38.2780   41.5390   26.2290 O   0  0  0  0  0  0  0  0  0  0  0  0
  2  5  1  0
  2  7  1  0
  3  4  1  0
  3  1  1  0
  5  1  1  0
  5  7  1  0
  5  8  1  0
  7  6  2  0
M  END
$$$$

     RDKit          3D

 10  9  0  0  0  0  0  0  0  0999 V2000
   36.8550   40.7430   22.9940 N   0  0  0  0  0  0  0  0  0  0  0  0
   37.4690   39.5150   25.1260 C   0  0  0  0  0  0  0  0  0  0  0  0
   37.5160   39.7230   26.6470 C   0  0  0  0  0  0  0  0  0  0  0  0
   39.8360   39.1250   27.6570 C   0  0  0  0  0  0  0  0  0  0  0  0
   35.0930   41.7930   25.3860 C   0  0  0  0  0  0  0  0  0  0  0  0
   38.4240   38.6610   27.3630 C   0  0  0  0  0  0  0  0  0  0  0  0
   37.8440   38.3700   28.6490 C   0  0  0  0  0  0  0  0  0  0  0  0
   37.0650   40.8090   24.4040 C   0  0  0  0  0  0  0  0  0  0  0  0
   36.5900   42.0320   25.1630 C   0  0  0  0  0  0  0  0  0  0  0  0
   38.1830   40.8430   27.0750 O   0  0  0  0  0  0  0  0  0  0  0  0
  2  3  1  0
  3 10  1  0
  3  6  1  0
  6  4  1  0
  6  7  1  0
  8  1  1  0
  8  2  1  0
  8  9  1  0
  9  5  1  0
M  END
$$$$

     RDKit          3D

  5  4  0  0  0  0  0  0  0  0999 V2000
   37.2480   39.9130   25.1180 C   0  0  0  0  0  0  0  0  0  0  0  0
   38.0090   39.1290   27.4970 C   0  0  0  0  0  0  0  0  0  0  0  0
   38.3840   39.6240   26.1140 C   0  0  0  0  0  0  0  0  0  0  0  0
   35.9120   40.5030   25.5910 C   0  0  0  0  0  0  0  0  0  0  0  0
   39.6080   39.7310   25.8010 O   0  0  0  0  0  0  0  0  0  0  0  0
  1  4  1  0
  1  3  1  0
  3  2  1  0
  5  3  2  0
M  END
$$$$

     RDKit          3D

 12 11  0  0  0  0  0  0  0  0999 V2000
   37.8080   39.4100   27.1540 C   0  0  0  0  0  0  0  0  0  0  0  0
   38.3740   40.2950   24.8160 O   0  0  0  0  0  0  0  0  0  0  0  0
   35.3650   42.8090   24.9960 C   0  0  0  0  0  0  0  0  0  0  0  0
   40.0250   40.1640   26.7960 O   0  0  0  0  0  0  0  0  0  0  0  0
   36.3660   40.9980   24.2560 C   0  0  0  0  0  0  0  0  0  0  0  0
   39.3500   40.2390   22.6490 C   0  0  0  0  0  0  0  0  0  0  0  0
   36.2920   42.3180   24.1090 O   0  0  0  0  0  0  0  0  0  0  0  0
   38.4540   40.9860   23.5790 C   0  0  0  0  0  0  0  0  0  0  0  0
   37.3810   39.6120   25.6070 P   0  0  0  0  0  0  0  0  0  0  0  0
   36.7030   38.5260   25.1300 O   0  0  0  0  0  0  0  0  0  0  0  0
   38.8260   40.4120   27.5090 C   0  0  0  0  0  0  0  0  0  0  0  0
   36.4390   40.5600   25.5750 O   0  0  0  0  0  0  0  0  0  0  0  0
  1 11  1  0
  2  9  1  0
  4 11  1  0
  5 12  1  0
  6  8  1  0
  7  5  1  0
  7  3  1  0
  8  2  1  0
  9 10  2  0
  9  1  1  0
 12  9  1  0
M  END
$$$$

     RDKit          3D

 17 17  0  0  0  0  0  0  0  0999 V2000
   38.6150   40.6800   26.1290 N   0  0  0  0  0  0  0  0  0  0  0  0
   34.1540   41.2690   24.5780 C   0  0  0  0  0  0  0  0  0  0  0  0
   39.1990   40.3200   27.3240 C   0  0  0  0  0  0  0  0  0  0  0  0
   39.0550   38.8680   27.6250 C   0  0  0  0  0  0  0  0  0  0  0  0
   35.5150   40.7570   24.0700 C   0  0  0  0  0  0  0  0  0  0  0  0
   38.0200   41.9190   25.9220 N   0  0  0  0  0  0  0  0  0  0  0  0
   37.8830   38.0260   27.7280 C   0  0  0  0  0  0  0  0  0  0  0  0
   38.1170   39.9410   25.1260 C   0  0  0  0  0  0  0  0  0  0  0  0
   38.0540   40.8840   24.0340 C   0  0  0  0  0  0  0  0  0  0  0  0
   37.7560   38.7530   25.0580 O   0  0  0  0  0  0  0  0  0  0  0  0
   38.6780   43.1500   26.1420 C   0  0  0  0  0  0  0  0  0  0  0  0
   38.2910   36.6970   28.3630 C   0  0  0  0  0  0  0  0  0  0  0  0
   33.9300   42.6430   24.4020 O   0  0  0  0  0  0  0  0  0  0  0  0
   39.9850   41.0310   27.9530 O   0  0  0  0  0  0  0  0  0  0  0  0
   40.1610   38.2990   27.8770 N   0  0  0  0  0  0  0  0  0  0  0  0
   36.7100   41.5840   25.9130 C   0  0  0  0  0  0  0  0  0  0  0  0
   36.7230   41.5230   24.4750 C   0  0  0  0  0  0  0  0  0  0  0  0
  1  3  1  0
  3  4  1  0
  3 14  2  0
  4  7  1  0
  4 15  2  0
  5  2  1  0
  6  1  1  0
  6 11  1  0
  7 12  1  0
  8  1  1  0
  9 17  1  0
  9  8  1  0
 10  8  2  0
 13  2  1  0
 16  6  1  0
 17  5  1  0
 17 16  1  0
M  END
$$$$

     RDKit          3D

 20 21  0  0  0  0  0  0  0  0999 V2000
   36.7110   40.0310   25.1160 C   0  0  0  0  0  0  0  0  0  0  0  0
   39.3780   40.0160   27.8620 C   0  0  0  0  0  0  0  0  0  0  0  0
   34.6020   41.5770   24.6450 C   0  0  0  0  0  0  0  0  0  0  0  0
   33.8750   40.6840   23.7830 C   0  0  0  0  0  0  0  0  0  0  0  0
   33.7440   40.0390   22.8900 N   0  0  0  0  0  0  0  0  0  0  0  0
   35.7670   42.0180   23.8310 N   0  0  0  0  0  0  0  0  0  0  0  0
   32.4970   42.6830   25.2950 O   0  0  0  0  0  0  0  0  0  0  0  0
   36.8670   41.0760   23.9570 C   0  0  0  0  0  0  0  0  0  0  0  0
   41.2140   40.2620   26.3000 C   0  0  0  0  0  0  0  0  0  0  0  0
   39.1530   40.2610   24.8570 C   0  0  0  0  0  0  0  0  0  0  0  0
   40.4690   39.2890   27.1010 N   0  0  0  0  0  0  0  0  0  0  0  0
   36.5980   38.4570   24.3040 S   0  0  0  0  0  0  0  0  0  0  0  0
   33.7460   43.4550   23.6450 F   0  0  0  0  0  0  0  0  0  0  0  0
   40.2390   41.1140   25.5000 C   0  0  0  0  0  0  0  0  0  0  0  0
   41.9870   41.1180   27.1190 O   0  0  0  0  0  0  0  0  0  0  0  0
   37.9960   39.7950   27.2690 C   0  0  0  0  0  0  0  0  0  0  0  0
   33.8330   42.8450   24.8700 C   0  0  0  0  0  0  0  0  0  0  0  0
   38.0440   40.0150   25.8000 N   0  0  0  0  0  0  0  0  0  0  0  0
   35.7220   40.0840   26.2950 C   0  0  0  0  0  0  0  0  0  0  0  0
   34.6270   40.8950   25.9490 N   0  0  0  0  0  0  0  0  0  0  0  0
  1 12  1  0
  1 18  1  0
  1 19  1  0
  3  4  1  0
  3 17  1  0
  3 20  1  0
  5  4  2  0
  6  8  1  0
  6  3  1  0
  8  1  1  0
  9 11  1  0
  9 15  1  0
 10 14  1  0
 11  2  1  0
 14  9  1  0
 16  2  1  0
 17 13  1  0
 17  7  1  0
 18 10  1  0
 18 16  1  0
 20 19  1  0
M  END
$$$$

     RDKit          3D

 16 17  0  0  0  0  0  0  0  0999 V2000
   34.1110   45.3440   24.1530 Br  0  0  0  0  0  0  0  0  0  0  0  0
   34.0070   42.6500   24.3510 C   0  0  0  0  0  0  0  0  0  0  0  0
   38.0100   38.6410   27.1600 N   0  0  0  0  0  0  0  0  0  0  0  0
   38.7900   40.7810   24.6060 C   0  0  0  0  0  0  0  0  0  0  0  0
   41.3560   40.5920   24.7650 C   0  0  0  0  0  0  0  0  0  0  0  0
   40.4400   40.5780   26.1370 C   0  0  0  0  0  0  0  0  0  0  0  0
   36.2410   38.8400   25.1930 O   0  0  0  0  0  0  0  0  0  0  0  0
   38.2660   42.1540   25.0590 O   0  0  0  0  0  0  0  0  0  0  0  0
   34.5840   41.3270   24.6350 C   0  0  0  0  0  0  0  0  0  0  0  0
   36.3400   43.5070   24.8930 C   0  0  0  0  0  0  0  0  0  0  0  0
   35.9280   41.0960   25.0660 C   0  0  0  0  0  0  0  0  0  0  0  0
   39.0870   40.1450   25.6390 C   0  0  0  0  0  0  0  0  0  0  0  0
   37.8210   39.9390   26.4910 C   0  0  0  0  0  0  0  0  0  0  0  0
   34.7600   43.8210   24.5230 C   0  0  0  0  0  0  0  0  0  0  0  0
   36.8540   42.1010   25.0920 C   0  0  0  0  0  0  0  0  0  0  0  0
   36.5820   39.8090   25.5740 C   0  0  0  0  0  0  0  0  0  0  0  0
  1 14  1  0
  2 14  2  0
  2  9  1  0
  4  8  1  0
  4 12  1  0
  5  6  1  0
  7 16  2  0
  8 15  1  0
  9 11  2  0
 10 15  2  0
 11 15  1  0
 11 16  1  0
 12  6  1  0
 12 13  1  0
 13  3  1  0
 14 10  1  0
 16 13  1  0
M  END
$$$$
