
     RDKit          3D

 13 12  0  0  0  0  0  0  0  0999 V2000
   45.3740   38.7310   28.7340 S   0  0  0  0  0  0  0  0  0  0  0  0
   43.7230   39.2110   30.0510 S   0  0  0  0  0  0  0  0  0  0  0  0
   41.3890   38.2150   28.3000 O   0  0  0  0  0  0  0  0  0  0  0  0
   42.6200   37.1350   24.9000 N   0  0  0  0  0  0  0  0  0  0  0  0
   45.2010   38.2370   26.1220 O   0  0  0  0  0  0  0  0  0  0  0  0
   46.1980   38.1100   29.7480 O   0  0  0  0  0  0  0  0  0  0  0  0
   42.9890   35.6950   24.6140 C   0  0  0  0  0  0  0  0  0  0  0  0
   42.6770   37.6270   26.3520 C   0  0  0  0  0  0  0  0  0  0  0  0
   41.3650   36.1790   27.4020 O   0  0  0  0  0  0  0  0  0  0  0  0
   43.7250   36.5990   28.3850 O   0  0  0  0  0  0  0  0  0  0  0  0
   41.6820   37.3060   27.4320 C   0  0  0  0  0  0  0  0  0  0  0  0
   43.0940   38.0760   23.8090 C   0  0  0  0  0  0  0  0  0  0  0  0
   44.1360   37.8610   27.4290 S   0  0  0  0  0  0  0  0  0  0  0  0
  1  6  2  0
  1  2  1  0
  4  8  1  0
  5 13  2  0
  7  4  1  0
  8 13  1  0
  8 11  1  0
  9 11  2  0
 11  3  1  0
 12  4  1  0
 13 10  2  0
 13  1  1  0
M  END
$$$$

     RDKit          3D

 10  9  0  0  0  0  0  0  0  0999 V2000
   41.6310   36.9750   26.3910 C   0  0  0  0  0  0  0  0  0  0  0  0
   41.3830   36.0370   25.2920 N   0  0  0  0  0  0  0  0  0  0  0  0
   44.0810   36.7550   28.8640 C   0  0  0  0  0  0  0  0  0  0  0  0
   41.9300   36.2130   27.6290 C   0  0  0  0  0  0  0  0  0  0  0  0
   44.6280   38.6990   27.5020 O   0  0  0  0  0  0  0  0  0  0  0  0
   43.4110   36.0060   27.7170 C   0  0  0  0  0  0  0  0  0  0  0  0
   45.4430   38.6820   29.5540 N   0  0  0  0  0  0  0  0  0  0  0  0
   44.0110   36.1180   26.3540 C   0  0  0  0  0  0  0  0  0  0  0  0
   45.3780   35.7600   26.4910 O   0  0  0  0  0  0  0  0  0  0  0  0
   44.7250   38.1010   28.5820 C   0  0  0  0  0  0  0  0  0  0  0  0
  1  4  1  0
  2  1  1  0
  4  6  1  0
  5 10  2  0
  6  8  1  0
  6  3  1  0
  8  9  1  0
 10  3  1  0
 10  7  1  0
M  END
$$$$

     RDKit          3D

  8  8  0  0  0  0  0  0  0  0999 V2000
   41.5530   35.0660   28.4040 N   0  0  0  0  0  0  0  0  0  0  0  0
   44.8070   36.8990   27.5470 N   0  0  0  0  0  0  0  0  0  0  0  0
   44.3000   37.2210   30.0030 N   0  0  0  0  0  0  0  0  0  0  0  0
   43.1120   36.3410   29.9340 C   0  0  0  0  0  0  0  0  0  0  0  0
   42.7100   35.8450   28.6040 C   0  0  0  0  0  0  0  0  0  0  0  0
   46.2160   38.4540   28.8460 C   0  0  0  0  0  0  0  0  0  0  0  0
   43.5880   36.0930   27.4010 C   0  0  0  0  0  0  0  0  0  0  0  0
   45.0460   37.4930   28.8400 C   0  0  0  0  0  0  0  0  0  0  0  0
  1  5  1  0
  2  8  2  0
  4  3  1  0
  5  4  2  0
  7  2  1  0
  7  5  1  0
  8  6  1  0
  8  3  1  0
M  END
$$$$

     RDKit          3D

 21 22  0  0  0  0  0  0  0  0999 V2000
   39.0420   37.3190   20.6670 Br  0  0  0  0  0  0  0  0  0  0  0  0
   39.8750   36.7240   26.4170 C   0  0  0  0  0  0  0  0  0  0  0  0
   39.1750   36.6390   24.3720 C   0  0  0  0  0  0  0  0  0  0  0  0
   39.4140   35.8480   25.4430 C   0  0  0  0  0  0  0  0  0  0  0  0
   42.8890   35.6550   30.2200 N   0  0  0  0  0  0  0  0  0  0  0  0
   43.3370   38.7290   29.8100 C   0  0  0  0  0  0  0  0  0  0  0  0
   39.7150   38.0480   26.0870 N   0  0  0  0  0  0  0  0  0  0  0  0
   38.9940   35.2050   22.5820 O   0  0  0  0  0  0  0  0  0  0  0  0
   39.1220   39.0940   24.0870 O   0  0  0  0  0  0  0  0  0  0  0  0
   42.5930   39.5750   30.6580 N   0  0  0  0  0  0  0  0  0  0  0  0
   40.7610   36.3790   27.3430 N   0  0  0  0  0  0  0  0  0  0  0  0
   41.2670   35.7930   28.4630 C   0  0  0  0  0  0  0  0  0  0  0  0
   42.4380   37.7860   28.9710 C   0  0  0  0  0  0  0  0  0  0  0  0
   39.7240   38.9580   22.6890 C   0  0  0  0  0  0  0  0  0  0  0  0
   39.7950   37.4860   22.1230 C   0  0  0  0  0  0  0  0  0  0  0  0
   42.2170   36.3810   29.2650 C   0  0  0  0  0  0  0  0  0  0  0  0
   41.7010   38.2550   27.9800 O   0  0  0  0  0  0  0  0  0  0  0  0
   44.4060   35.8950   30.0770 C   0  0  0  0  0  0  0  0  0  0  0  0
   40.8770   34.7520   28.9270 C   0  0  0  0  0  0  0  0  0  0  0  0
   39.3570   38.0540   24.8540 C   0  0  0  0  0  0  0  0  0  0  0  0
   39.2870   36.3410   23.0600 C   0  0  0  0  0  0  0  0  0  0  0  0
  2 11  1  0
  3 20  1  0
  3  4  1  0
  4  2  1  0
  6 10  1  0
  7  2  1  0
  8 21  2  0
  9 20  1  0
 11 12  1  0
 12 19  2  0
 12 16  1  0
 13 16  2  3
 13  6  1  0
 14  9  1  0
 15  1  1  0
 15 14  1  0
 15 21  1  0
 16  5  1  0
 17 13  1  0
 18  5  1  0
 20  7  2  0
 21  3  1  0
M  END
$$$$

     RDKit          3D

 17 18  0  0  0  0  0  0  0  0999 V2000
   40.8970   34.9360   28.9760 N   0  0  0  0  0  0  0  0  0  0  0  0
   40.3420   36.0770   27.9740 S   0  0  0  0  0  0  0  0  0  0  0  0
   40.1530   31.5770   29.7880 C   0  0  0  0  0  0  0  0  0  0  0  0
   42.7200   36.0680   26.7460 C   0  0  0  0  0  0  0  0  0  0  0  0
   43.4830   39.3690   24.0710 C   0  0  0  0  0  0  0  0  0  0  0  0
   44.7890   39.4330   25.1250 O   0  0  0  0  0  0  0  0  0  0  0  0
   42.5120   38.9590   24.8780 O   0  0  0  0  0  0  0  0  0  0  0  0
   41.6660   38.0570   26.8160 N   0  0  0  0  0  0  0  0  0  0  0  0
   39.7420   34.2310   29.5330 C   0  0  0  0  0  0  0  0  0  0  0  0
   38.9750   30.3350   29.3790 S   0  0  0  0  0  0  0  0  0  0  0  0
   39.4650   35.6020   26.9680 O   0  0  0  0  0  0  0  0  0  0  0  0
   39.8350   37.1690   28.6550 O   0  0  0  0  0  0  0  0  0  0  0  0
   41.6920   36.7600   27.1410 C   0  0  0  0  0  0  0  0  0  0  0  0
   42.9030   38.3980   26.0930 C   0  0  0  0  0  0  0  0  0  0  0  0
   43.4620   37.0140   25.8620 C   0  0  0  0  0  0  0  0  0  0  0  0
   39.5570   32.7530   28.6580 S   0  0  0  0  0  0  0  0  0  0  0  0
   44.1040   40.6390   24.2500 C   0  0  0  0  0  0  0  0  0  0  0  0
  1  9  1  0
  2 12  2  0
  2  1  1  0
  4 13  1  0
  5 17  1  0
  5  7  1  0
  5  6  1  0
  8 13  1  0
 10  3  1  0
 11  2  2  0
 13  2  1  0
 14  7  1  0
 14  8  1  0
 15 14  1  0
 15  4  1  0
 16  9  1  0
 16  3  1  0
 17  6  1  0
M  END
$$$$

     RDKit          3D

  6  5  0  0  0  0  0  0  0  0999 V2000
   43.7720   37.5730   27.1100 C   0  0  0  0  0  0  0  0  0  0  0  0
   43.6340   37.4290   28.8860 S   0  0  0  0  0  0  0  0  0  0  0  0
   42.8350   36.4930   26.5120 C   0  0  0  0  0  0  0  0  0  0  0  0
   40.5750   36.0180   27.1980 O   0  0  0  0  0  0  0  0  0  0  0  0
   43.1830   36.2960   25.1310 N   0  0  0  0  0  0  0  0  0  0  0  0
   41.4140   36.9490   26.7090 C   0  0  0  0  0  0  0  0  0  0  0  0
  1  2  1  0
  3  5  1  0
  3  6  1  0
  3  1  1  0
  6  4  1  0
M  END
$$$$

     RDKit          3D

 20 20  0  0  0  0  0  0  0  0999 V2000
   41.6470   38.5710   26.4290 C   0  0  0  0  0  0  0  0  0  0  0  0
   40.1190   37.3360   25.4100 C   0  0  0  0  0  0  0  0  0  0  0  0
   43.1350   36.9140   29.3980 C   0  0  0  0  0  0  0  0  0  0  0  0
   36.8060   36.8190   22.9530 O   0  0  0  0  0  0  0  0  0  0  0  0
   45.2510   38.0580   29.8640 N   0  0  0  0  0  0  0  0  0  0  0  0
   43.2010   36.6330   26.8630 C   0  0  0  0  0  0  0  0  0  0  0  0
   38.7180   36.1270   23.8600 C   0  0  0  0  0  0  0  0  0  0  0  0
   40.1230   38.1590   24.5530 O   0  0  0  0  0  0  0  0  0  0  0  0
   38.1010   37.0780   23.3790 C   0  0  0  0  0  0  0  0  0  0  0  0
   45.0370   37.0500   28.0330 C   0  0  0  0  0  0  0  0  0  0  0  0
   38.5390   35.0870   23.2740 O   0  0  0  0  0  0  0  0  0  0  0  0
   39.1020   35.2350   25.9680 O   0  0  0  0  0  0  0  0  0  0  0  0
   46.6220   38.1310   29.5140 O   0  0  0  0  0  0  0  0  0  0  0  0
   40.9490   37.2740   26.3880 O   0  0  0  0  0  0  0  0  0  0  0  0
   38.9550   36.3320   25.2940 C   0  0  0  0  0  0  0  0  0  0  0  0
   42.4360   36.0720   28.1890 C   0  0  0  0  0  0  0  0  0  0  0  0
   44.8220   38.6740   31.1920 O   0  0  0  0  0  0  0  0  0  0  0  0
   42.9300   38.2710   26.8890 C   0  0  0  0  0  0  0  0  0  0  0  0
   44.7950   36.1000   26.9030 C   0  0  0  0  0  0  0  0  0  0  0  0
   44.4750   37.3410   29.1200 C   0  0  0  0  0  0  0  0  0  0  0  0
  1 18  1  0
  2 14  1  0
  4  9  1  0
  5 17  2  0
  6 18  1  0
  6 19  1  0
  6 16  1  0
  7 15  1  0
  8  2  2  0
  9  7  1  0
 10 20  2  0
 11  7  2  0
 13  5  2  0
 14  1  1  0
 15  2  1  0
 15 12  1  0
 16  3  1  0
 19 10  1  0
 20  3  1  0
 20  5  1  0
M  END
$$$$

     RDKit          3D

  8  7  0  0  0  0  0  0  0  0999 V2000
   43.2490   38.8080   29.3910 O   0  0  0  0  0  0  0  0  0  0  0  0
   42.6880   36.7380   28.1110 C   0  0  0  0  0  0  0  0  0  0  0  0
   43.6590   37.6960   28.8190 C   0  0  0  0  0  0  0  0  0  0  0  0
   42.3420   35.5450   28.8270 N   0  0  0  0  0  0  0  0  0  0  0  0
   41.7850   35.8710   25.9820 N   0  0  0  0  0  0  0  0  0  0  0  0
   42.9110   37.8790   25.9570 O   0  0  0  0  0  0  0  0  0  0  0  0
   42.4090   36.9310   26.5930 C   0  0  0  0  0  0  0  0  0  0  0  0
   44.9690   37.2610   28.8930 O   0  0  0  0  0  0  0  0  0  0  0  0
  2  3  1  0
  2  4  1  0
  3  8  2  0
  3  1  1  0
  5  7  1  0
  6  7  2  0
  7  2  1  0
M  END
$$$$

     RDKit          3D

 11 11  0  0  0  0  0  0  0  0999 V2000
   42.7410   36.8420   24.0030 F   0  0  0  0  0  0  0  0  0  0  0  0
   42.0090   36.8190   28.0280 C   0  0  0  0  0  0  0  0  0  0  0  0
   40.9580   36.9150   26.9050 C   0  0  0  0  0  0  0  0  0  0  0  0
   45.7000   38.1330   26.4830 O   0  0  0  0  0  0  0  0  0  0  0  0
   41.3250   36.2430   25.8290 C   0  0  0  0  0  0  0  0  0  0  0  0
   42.2260   35.4210   28.6930 C   0  0  0  0  0  0  0  0  0  0  0  0
   42.6520   36.3730   25.3280 C   0  0  0  0  0  0  0  0  0  0  0  0
   44.7730   37.6960   25.6970 C   0  0  0  0  0  0  0  0  0  0  0  0
   43.6650   37.1520   26.1530 C   0  0  0  0  0  0  0  0  0  0  0  0
   40.9070   34.6680   28.9870 O   0  0  0  0  0  0  0  0  0  0  0  0
   43.3460   37.2750   27.5230 O   0  0  0  0  0  0  0  0  0  0  0  0
  2  6  1  0
  3  2  1  0
  5  3  1  0
  6 10  1  0
  7  1  1  0
  7  5  1  0
  7  9  1  0
  8  9  2  3
  8  4  1  0
  9 11  1  0
 11  2  1  0
M  END
$$$$

     RDKit          3D

 14 13  0  0  0  0  0  0  0  0999 V2000
   42.0100   38.0980   24.3650 C   0  0  0  0  0  0  0  0  0  0  0  0
   44.0430   37.1990   24.0560 N   0  0  0  0  0  0  0  0  0  0  0  0
   41.9270   37.7130   28.6020 C   0  0  0  0  0  0  0  0  0  0  0  0
   40.5320   37.2240   26.6620 O   0  0  0  0  0  0  0  0  0  0  0  0
   44.5140   37.8510   28.5920 C   0  0  0  0  0  0  0  0  0  0  0  0
   41.7030   37.8020   26.9360 C   0  0  0  0  0  0  0  0  0  0  0  0
   41.6360   35.2380   28.6630 N   0  0  0  0  0  0  0  0  0  0  0  0
   42.7450   37.0320   24.8360 C   0  0  0  0  0  0  0  0  0  0  0  0
   43.9430   36.1530   27.0230 O   0  0  0  0  0  0  0  0  0  0  0  0
   41.2900   39.0970   24.1380 C   0  0  0  0  0  0  0  0  0  0  0  0
   41.9660   38.8840   29.1540 N   0  0  0  0  0  0  0  0  0  0  0  0
   42.4250   36.4430   29.1030 C   0  0  0  0  0  0  0  0  0  0  0  0
   43.0660   37.1840   26.3990 C   0  0  0  0  0  0  0  0  0  0  0  0
   44.7710   36.3980   28.1860 C   0  0  0  0  0  0  0  0  0  0  0  0
  1  8  1  0
  3 12  1  0
  3 11  2  0
  6  4  1  0
  6  3  1  0
  7 12  1  0
  8  2  1  0
  8 13  1  0
  9 14  1  0
 10  1  3  0
 13  6  1  0
 13  9  1  0
 14  5  1  0
M  END
$$$$

     RDKit          3D

  9  9  0  0  0  0  0  0  0  0999 V2000
   42.9180   37.1850   26.3770 C   0  0  0  0  0  0  0  0  0  0  0  0
   42.8040   37.9120   28.5260 C   0  0  0  0  0  0  0  0  0  0  0  0
   42.0230   35.7310   28.4590 C   0  0  0  0  0  0  0  0  0  0  0  0
   43.1800   36.7900   25.0970 N   0  0  0  0  0  0  0  0  0  0  0  0
   43.0770   38.4780   27.1230 C   0  0  0  0  0  0  0  0  0  0  0  0
   41.1910   36.0850   26.0760 N   0  0  0  0  0  0  0  0  0  0  0  0
   41.8150   36.4410   24.7370 C   0  0  0  0  0  0  0  0  0  0  0  0
   42.2810   35.9860   27.0720 C   0  0  0  0  0  0  0  0  0  0  0  0
   44.1410   39.2140   26.2790 C   0  0  0  0  0  0  0  0  0  0  0  0
  1  8  1  0
  1  5  1  0
  4  1  1  0
  5  2  1  0
  6  8  1  0
  7  4  1  0
  7  6  1  0
  8  3  1  0
  9  5  1  0
M  END
$$$$

     RDKit          3D

 20 21  0  0  0  0  0  0  0  0999 V2000
   43.9430   36.8880   30.0820 C   0  0  0  0  0  0  0  0  0  0  0  0
   42.0370   38.1570   22.5660 C   0  0  0  0  0  0  0  0  0  0  0  0
   40.3930   36.1460   27.2200 N   0  0  0  0  0  0  0  0  0  0  0  0
   42.6670   36.7750   29.4110 N   0  0  0  0  0  0  0  0  0  0  0  0
   39.9510   36.1050   25.8530 C   0  0  0  0  0  0  0  0  0  0  0  0
   40.8610   37.0830   22.2940 C   0  0  0  0  0  0  0  0  0  0  0  0
   42.3430   35.6050   28.6310 C   0  0  0  0  0  0  0  0  0  0  0  0
   43.1880   37.5090   22.3990 O   0  0  0  0  0  0  0  0  0  0  0  0
   44.5790   38.2320   29.6810 C   0  0  0  0  0  0  0  0  0  0  0  0
   42.6600   36.8810   26.5330 O   0  0  0  0  0  0  0  0  0  0  0  0
   39.4820   35.8900   28.3490 C   0  0  0  0  0  0  0  0  0  0  0  0
   38.9880   35.4670   25.4510 O   0  0  0  0  0  0  0  0  0  0  0  0
   40.9280   36.7150   24.9380 C   0  0  0  0  0  0  0  0  0  0  0  0
   42.4070   37.0750   25.1240 C   0  0  0  0  0  0  0  0  0  0  0  0
   40.0200   35.4710   29.5550 C   0  0  0  0  0  0  0  0  0  0  0  0
   41.3620   34.7310   29.3940 C   0  0  0  0  0  0  0  0  0  0  0  0
   45.9690   37.9400   29.0850 C   0  0  0  0  0  0  0  0  0  0  0  0
   40.1090   37.0670   23.7120 C   0  0  0  0  0  0  0  0  0  0  0  0
   41.7850   36.2680   27.3950 C   0  0  0  0  0  0  0  0  0  0  0  0
   43.8670   36.9580   24.6240 C   0  0  0  0  0  0  0  0  0  0  0  0
  3 19  1  0
  3 11  1  0
  4  1  1  0
  5  3  1  0
  6  2  1  0
  6 18  1  0
  7 16  1  0
  7  4  1  0
  8  2  1  0
  9  1  1  0
 11 15  1  0
 12  5  2  0
 13 18  1  0
 13 14  1  0
 13  5  1  0
 14 20  1  0
 14 10  1  0
 16 15  1  0
 17  9  1  0
 19 10  1  0
 19  7  1  0
M  END
$$$$

     RDKit          3D

 11 10  0  0  0  0  0  0  0  0999 V2000
   41.9150   37.9530   28.1240 C   0  0  0  0  0  0  0  0  0  0  0  0
   41.5120   38.6090   25.8780 C   0  0  0  0  0  0  0  0  0  0  0  0
   44.0730   35.3300   28.1400 C   0  0  0  0  0  0  0  0  0  0  0  0
   42.7160   35.4220   27.4840 N   0  0  0  0  0  0  0  0  0  0  0  0
   40.0740   37.0520   26.9860 C   0  0  0  0  0  0  0  0  0  0  0  0
   41.4590   37.5450   26.8680 N   0  0  0  0  0  0  0  0  0  0  0  0
   45.1980   37.6380   26.6620 C   0  0  0  0  0  0  0  0  0  0  0  0
   42.3110   36.4130   26.4120 C   0  0  0  0  0  0  0  0  0  0  0  0
   44.6880   37.8020   27.9900 C   0  0  0  0  0  0  0  0  0  0  0  0
   44.5310   36.5500   28.8400 C   0  0  0  0  0  0  0  0  0  0  0  0
   42.5060   38.6970   28.6540 O   0  0  0  0  0  0  0  0  0  0  0  0
  1 11  2  0
  2  6  1  0
  3 10  1  0
  4  3  1  0
  6  5  1  0
  6  1  1  0
  7  9  1  0
  8  6  1  0
  8  4  1  0
  9 10  1  0
M  END
$$$$

     RDKit          3D

  8 10  0  0  0  0  0  0  0  0999 V2000
   42.3460   36.4710   27.8980 N   0  0  0  0  0  0  0  0  0  0  0  0
   41.3650   38.4460   26.4730 O   0  0  0  0  0  0  0  0  0  0  0  0
   43.2970   37.2340   25.0300 C   0  0  0  0  0  0  0  0  0  0  0  0
   43.2300   35.8470   28.8360 C   0  0  0  0  0  0  0  0  0  0  0  0
   41.0310   37.2460   26.7480 C   0  0  0  0  0  0  0  0  0  0  0  0
   43.5320   37.7400   26.2820 O   0  0  0  0  0  0  0  0  0  0  0  0
   42.0390   38.0060   27.8750 C   0  0  0  0  0  0  0  0  0  0  0  0
   43.1460   36.4550   26.4040 C   0  0  0  0  0  0  0  0  0  0  0  0
  1  4  1  0
  3  6  1  0
  5  2  1  0
  5  7  1  0
  5  1  1  0
  6  8  1  0
  7  2  1  0
  7  1  1  0
  8  3  1  0
  8  1  1  0
M  END
$$$$

     RDKit          3D

  5  4  0  0  0  0  0  0  0  0999 V2000
   44.2410   37.1440   26.0650 O   0  0  0  0  0  0  0  0  0  0  0  0
   43.1530   36.6920   26.0270 C   0  0  0  0  0  0  0  0  0  0  0  0
   41.8270   35.5640   27.9630 N   0  0  0  0  0  0  0  0  0  0  0  0
   42.2290   36.7910   27.2560 C   0  0  0  0  0  0  0  0  0  0  0  0
   42.9220   36.1880   24.9580 O   0  0  0  0  0  0  0  0  0  0  0  0
  2  1  1  0
  2  4  1  0
  4  3  1  0
  5  2  2  0
M  END
$$$$

     RDKit          3D

 12 12  0  0  0  0  0  0  0  0999 V2000
   44.7880   38.7590   27.8200 C   0  0  0  0  0  0  0  0  0  0  0  0
   42.4140   37.7010   27.9560 C   0  0  0  0  0  0  0  0  0  0  0  0
   40.4150   35.5290   25.7480 C   0  0  0  0  0  0  0  0  0  0  0  0
   41.9470   38.8540   28.6890 O   0  0  0  0  0  0  0  0  0  0  0  0
   41.2320   37.2850   26.9870 C   0  0  0  0  0  0  0  0  0  0  0  0
   45.3240   38.0930   29.0450 O   0  0  0  0  0  0  0  0  0  0  0  0
   43.7120   37.8660   27.1190 C   0  0  0  0  0  0  0  0  0  0  0  0
   40.1800   35.6520   24.4510 N   0  0  0  0  0  0  0  0  0  0  0  0
   42.9150   36.2870   25.3030 C   0  0  0  0  0  0  0  0  0  0  0  0
   41.7320   36.0370   26.2470 C   0  0  0  0  0  0  0  0  0  0  0  0
   44.4630   40.1460   28.2090 O   0  0  0  0  0  0  0  0  0  0  0  0
   44.1630   36.5490   26.3540 C   0  0  0  0  0  0  0  0  0  0  0  0
  1 11  1  0
  1  6  1  0
  2  4  1  0
  5  2  1  0
  7  1  1  0
  7  2  1  0
  8  3  2  0
  9 10  1  0
  9 12  1  0
 10  3  1  0
 10  5  1  0
 12  7  1  0
M  END
$$$$

     RDKit          3D

 13 13  0  0  0  0  0  0  0  0999 V2000
   44.6460   38.0690   29.5820 C   0  0  0  0  0  0  0  0  0  0  0  0
   45.1390   35.4380   28.5840 C   0  0  0  0  0  0  0  0  0  0  0  0
   43.0780   37.1570   27.9390 C   0  0  0  0  0  0  0  0  0  0  0  0
   43.5600   36.8720   29.3180 C   0  0  0  0  0  0  0  0  0  0  0  0
   42.0400   38.3260   27.7880 C   0  0  0  0  0  0  0  0  0  0  0  0
   43.6550   36.4610   26.8810 C   0  0  0  0  0  0  0  0  0  0  0  0
   44.8470   35.7380   27.2280 C   0  0  0  0  0  0  0  0  0  0  0  0
   43.0200   36.4600   25.4970 C   0  0  0  0  0  0  0  0  0  0  0  0
   44.2160   36.0360   24.4680 C   0  0  0  0  0  0  0  0  0  0  0  0
   42.2000   39.2220   28.6450 O   0  0  0  0  0  0  0  0  0  0  0  0
   41.2430   38.5210   26.9340 O   0  0  0  0  0  0  0  0  0  0  0  0
   44.3570   35.7480   29.5580 C   0  0  0  0  0  0  0  0  0  0  0  0
   41.6640   36.8570   24.8320 N   0  0  0  0  0  0  0  0  0  0  0  0
  2 12  1  0
  3  5  1  0
  3  4  1  0
  4 12  1  0
  4  1  1  0
  5 10  1  0
  6  8  1  0
  6  7  1  0
  6  3  1  0
  7  2  2  0
  8  9  1  0
 11  5  2  0
 13  8  1  0
M  END
$$$$

     RDKit          3D

 14 15  0  0  0  0  0  0  0  0999 V2000
   41.1580   35.7820   28.3670 C   0  0  0  0  0  0  0  0  0  0  0  0
   43.0190   36.2280   30.0250 C   0  0  0  0  0  0  0  0  0  0  0  0
   39.9760   35.6540   24.7460 C   0  0  0  0  0  0  0  0  0  0  0  0
   40.0720   35.5050   27.0960 C   0  0  0  0  0  0  0  0  0  0  0  0
   41.9830   36.9050   28.0200 C   0  0  0  0  0  0  0  0  0  0  0  0
   41.3390   37.9090   24.5950 O   0  0  0  0  0  0  0  0  0  0  0  0
   43.4620   38.4570   28.9170 O   0  0  0  0  0  0  0  0  0  0  0  0
   42.6220   37.5500   29.3720 C   0  0  0  0  0  0  0  0  0  0  0  0
   40.2600   36.2280   25.9590 C   0  0  0  0  0  0  0  0  0  0  0  0
   38.7440   36.1480   24.0290 C   0  0  0  0  0  0  0  0  0  0  0  0
   40.7920   37.6390   25.8990 C   0  0  0  0  0  0  0  0  0  0  0  0
   41.8630   37.8860   26.9980 C   0  0  0  0  0  0  0  0  0  0  0  0
   42.3550   39.0120   27.0940 O   0  0  0  0  0  0  0  0  0  0  0  0
   41.9270   35.1960   29.7870 N   0  0  0  0  0  0  0  0  0  0  0  0
  1  4  1  0
  1 14  1  0
  5 12  1  0
  5  1  1  0
  5  8  1  0
  8  7  1  0
  8  2  1  0
  9  3  1  0
  9  4  1  0
 10  3  1  0
 11  6  1  0
 11  9  1  0
 11 12  1  0
 12 13  2  0
 14  2  1  0
M  END
$$$$

     RDKit          3D

  9  8  0  0  0  0  0  0  0  0999 V2000
   42.3680   36.6810   25.9010 P   0  0  0  0  0  0  0  0  0  0  0  0
   40.9560   36.0520   26.3590 O   0  0  0  0  0  0  0  0  0  0  0  0
   42.4100   38.2230   26.8430 C   0  0  0  0  0  0  0  0  0  0  0  0
   42.1240   36.9040   28.8890 O   0  0  0  0  0  0  0  0  0  0  0  0
   42.4280   36.6990   24.5110 O   0  0  0  0  0  0  0  0  0  0  0  0
   43.5500   38.8530   29.1100 C   0  0  0  0  0  0  0  0  0  0  0  0
   42.6490   37.8640   28.3300 C   0  0  0  0  0  0  0  0  0  0  0  0
   43.5200   38.5820   30.5660 N   0  0  0  0  0  0  0  0  0  0  0  0
   43.4820   35.5430   26.6560 C   0  0  0  0  0  0  0  0  0  0  0  0
  1  2  1  0
  1  9  1  0
  1  3  1  0
  3  7  1  0
  5  1  2  0
  6  8  1  0
  7  4  2  0
  7  6  1  0
M  END
$$$$

     RDKit          3D

 22 24  0  0  0  0  0  0  0  0999 V2000
   43.4650   37.8980   28.8050 C   0  0  0  0  0  0  0  0  0  0  0  0
   36.9090   35.0170   20.8630 O   0  0  0  0  0  0  0  0  0  0  0  0
   42.8950   37.0220   27.6790 C   0  0  0  0  0  0  0  0  0  0  0  0
   45.5610   37.4590   29.7580 O   0  0  0  0  0  0  0  0  0  0  0  0
   40.4140   35.9700   27.3280 N   0  0  0  0  0  0  0  0  0  0  0  0
   43.9300   35.6660   29.8460 C   0  0  0  0  0  0  0  0  0  0  0  0
   39.9300   39.2190   25.4860 C   0  0  0  0  0  0  0  0  0  0  0  0
   42.5760   35.4350   29.7730 N   0  0  0  0  0  0  0  0  0  0  0  0
   37.8010   35.8320   23.2150 C   0  0  0  0  0  0  0  0  0  0  0  0
   36.9200   35.4560   22.0250 C   0  0  0  0  0  0  0  0  0  0  0  0
   44.3440   37.0830   29.6210 C   0  0  0  0  0  0  0  0  0  0  0  0
   41.7490   35.1220   28.8190 C   0  0  0  0  0  0  0  0  0  0  0  0
   38.7510   37.5950   24.2200 C   0  0  0  0  0  0  0  0  0  0  0  0
   39.0250   38.9610   24.6210 C   0  0  0  0  0  0  0  0  0  0  0  0
   39.2540   36.6070   25.1300 C   0  0  0  0  0  0  0  0  0  0  0  0
   41.5290   36.4480   28.1880 C   0  0  0  0  0  0  0  0  0  0  0  0
   38.2490   35.5440   20.7310 C   0  0  0  0  0  0  0  0  0  0  0  0
   40.0060   36.9570   26.2780 C   0  0  0  0  0  0  0  0  0  0  0  0
   40.4100   38.2630   26.4350 C   0  0  0  0  0  0  0  0  0  0  0  0
   38.8170   35.2730   24.5400 S   0  0  0  0  0  0  0  0  0  0  0  0
   39.4230   35.1750   21.2670 C   0  0  0  0  0  0  0  0  0  0  0  0
   38.1210   37.2620   23.1530 C   0  0  0  0  0  0  0  0  0  0  0  0
  1 11  1  0
  2 10  1  0
  3 16  1  0
  3  1  1  0
  7 19  1  0
  8  6  1  0
  9 10  1  0
  9 20  1  0
 11  4  2  0
 11  6  1  0
 12  8  1  0
 13 14  1  0
 13 15  2  0
 14  7  2  0
 15 18  1  0
 16  5  1  0
 16 12  1  0
 17  2  1  0
 17 21  2  0
 18 19  2  0
 18  5  1  0
 20 15  1  0
 22  9  1  0
 22 13  1  0
M  END
$$$$
