
     RDKit          3D

 12 12  0  0  0  0  0  0  0  0999 V2000
   41.5270   37.2090   32.1120 C   0  0  0  0  0  0  0  0  0  0  0  0
   39.4300   41.9030   29.5840 C   0  0  0  0  0  0  0  0  0  0  0  0
   41.3620   41.2710   29.5110 O   0  0  0  0  0  0  0  0  0  0  0  0
   40.8690   38.2860   32.6120 N   0  0  0  0  0  0  0  0  0  0  0  0
   40.2390   40.4320   31.4660 C   0  0  0  0  0  0  0  0  0  0  0  0
   38.8660   40.3600   28.4460 O   0  0  0  0  0  0  0  0  0  0  0  0
   41.1350   35.9140   32.2970 C   0  0  0  0  0  0  0  0  0  0  0  0
   40.0780   40.6270   29.9250 C   0  0  0  0  0  0  0  0  0  0  0  0
   41.0460   39.1880   31.7340 C   0  0  0  0  0  0  0  0  0  0  0  0
   39.3620   39.5240   29.2670 C   0  0  0  0  0  0  0  0  0  0  0  0
   42.4660   37.6200   31.2940 N   0  0  0  0  0  0  0  0  0  0  0  0
   42.2050   38.8860   31.0000 N   0  0  0  0  0  0  0  0  0  0  0  0
  1  7  1  0
  1  4  2  0
  3  8  1  0
  5  9  1  0
  6 10  1  0
  8  2  1  0
  8  5  1  0
  9  4  2  0
 10  8  1  0
 11  1  1  0
 12 11  1  0
 12  9  1  0
M  END
$$$$

     RDKit          3D

  9  8  0  0  0  0  0  0  0  0999 V2000
   40.5450   39.2520   29.6270 N   0  0  0  0  0  0  0  0  0  0  0  0
   39.4210   40.6360   31.1130 O   0  0  0  0  0  0  0  0  0  0  0  0
   42.9700   40.1360   32.7020 S   0  0  0  0  0  0  0  0  0  0  0  0
   41.4860   37.8910   32.3100 N   0  0  0  0  0  0  0  0  0  0  0  0
   42.6130   38.3890   33.1020 C   0  0  0  0  0  0  0  0  0  0  0  0
   40.3020   38.6050   32.0370 C   0  0  0  0  0  0  0  0  0  0  0  0
   40.0480   39.5850   30.9140 C   0  0  0  0  0  0  0  0  0  0  0  0
   41.5090   36.5150   31.8700 C   0  0  0  0  0  0  0  0  0  0  0  0
   40.2320   36.1630   32.1840 N   0  0  0  0  0  0  0  0  0  0  0  0
  1  7  1  0
  3  5  1  0
  4  5  1  0
  6  4  1  0
  7  2  2  0
  7  6  1  0
  8  9  1  0
  8  4  1  0
M  END
$$$$

     RDKit          3D

  8  7  0  0  0  0  0  0  0  0999 V2000
   43.6670   38.3180   32.7760 O   0  0  0  0  0  0  0  0  0  0  0  0
   41.4880   38.0160   31.3650 C   0  0  0  0  0  0  0  0  0  0  0  0
   42.2710   38.6020   32.8260 S   0  0  0  0  0  0  0  0  0  0  0  0
   38.7850   40.3000   30.3190 C   0  0  0  0  0  0  0  0  0  0  0  0
   39.7650   39.1960   30.1810 C   0  0  0  0  0  0  0  0  0  0  0  0
   40.0820   38.6400   31.4240 C   0  0  0  0  0  0  0  0  0  0  0  0
   41.8270   40.2440   33.0590 C   0  0  0  0  0  0  0  0  0  0  0  0
   41.6940   37.8150   33.8950 O   0  0  0  0  0  0  0  0  0  0  0  0
  1  3  2  0
  2  6  1  0
  2  3  1  0
  3  7  1  0
  3  8  2  0
  5  4  1  0
  5  6  1  0
M  END
$$$$

     RDKit          3D

 17 17  0  0  0  0  0  0  0  0999 V2000
   39.3760   43.7210   26.9320 C   0  0  0  0  0  0  0  0  0  0  0  0
   41.1430   38.3280   31.5040 C   0  0  0  0  0  0  0  0  0  0  0  0
   39.3880   41.4650   28.1690 C   0  0  0  0  0  0  0  0  0  0  0  0
   40.9950   38.9490   28.9080 S   0  0  0  0  0  0  0  0  0  0  0  0
   41.3300   36.3890   32.9380 N   0  0  0  0  0  0  0  0  0  0  0  0
   43.9670   38.3200   33.5710 N   0  0  0  0  0  0  0  0  0  0  0  0
   42.4890   38.9450   31.8580 C   0  0  0  0  0  0  0  0  0  0  0  0
   40.7540   40.6920   30.7480 N   0  0  0  0  0  0  0  0  0  0  0  0
   40.5370   39.3030   30.5970 C   0  0  0  0  0  0  0  0  0  0  0  0
   39.6820   41.0100   29.6120 C   0  0  0  0  0  0  0  0  0  0  0  0
   39.0870   39.4390   31.1790 C   0  0  0  0  0  0  0  0  0  0  0  0
   38.3210   40.7660   27.4660 O   0  0  0  0  0  0  0  0  0  0  0  0
   37.5340   43.0010   28.3530 C   0  0  0  0  0  0  0  0  0  0  0  0
   39.0580   42.9730   28.1360 C   0  0  0  0  0  0  0  0  0  0  0  0
   42.6180   39.3000   33.5630 S   0  0  0  0  0  0  0  0  0  0  0  0
   38.6120   39.9740   29.9450 C   0  0  0  0  0  0  0  0  0  0  0  0
   40.4200   37.4530   32.5300 C   0  0  0  0  0  0  0  0  0  0  0  0
  1 14  1  0
  2  7  1  0
  2 17  1  0
  3 12  1  0
  7 15  1  0
  9  4  1  0
  9  8  1  0
  9 11  1  0
  9  2  1  0
 10  3  1  0
 10 16  1  0
 10  8  1  0
 14  3  1  0
 14 13  1  0
 15  6  1  0
 16 11  1  0
 17  5  1  0
M  END
$$$$

     RDKit          3D

 12 13  0  0  0  0  0  0  0  0999 V2000
   42.8500   39.7290   32.8810 N   0  0  0  0  0  0  0  0  0  0  0  0
   42.0820   37.4340   33.0090 N   0  0  0  0  0  0  0  0  0  0  0  0
   41.2930   38.7360   31.1580 C   0  0  0  0  0  0  0  0  0  0  0  0
   39.4830   39.0930   29.2020 S   0  0  0  0  0  0  0  0  0  0  0  0
   41.0180   39.7630   28.7600 C   0  0  0  0  0  0  0  0  0  0  0  0
   42.4590   38.5270   32.1160 C   0  0  0  0  0  0  0  0  0  0  0  0
   39.2060   40.0620   30.6940 C   0  0  0  0  0  0  0  0  0  0  0  0
   40.6910   37.3060   31.1650 C   0  0  0  0  0  0  0  0  0  0  0  0
   41.7960   39.7360   30.0200 C   0  0  0  0  0  0  0  0  0  0  0  0
   41.3310   36.4400   32.2240 C   0  0  0  0  0  0  0  0  0  0  0  0
   40.1720   39.5610   31.7720 C   0  0  0  0  0  0  0  0  0  0  0  0
   42.6140   40.6020   30.2660 O   0  0  0  0  0  0  0  0  0  0  0  0
  3  8  1  0
  3 11  1  0
  3  6  1  0
  4  7  1  0
  5  4  1  0
  5  9  1  0
  6  1  1  0
  6  2  1  0
  7 11  1  0
  8 10  1  0
  9 12  2  0
  9  3  1  0
 10  2  1  0
M  END
$$$$

     RDKit          3D

 10 10  0  0  0  0  0  0  0  0999 V2000
   41.6560   38.3260   32.3130 C   0  0  0  0  0  0  0  0  0  0  0  0
   39.5260   38.6070   30.8150 S   0  0  0  0  0  0  0  0  0  0  0  0
   41.1140   38.7820   31.0200 C   0  0  0  0  0  0  0  0  0  0  0  0
   41.4900   40.4280   30.8940 C   0  0  0  0  0  0  0  0  0  0  0  0
   42.6400   40.3140   31.3770 C   0  0  0  0  0  0  0  0  0  0  0  0
   41.6340   36.7910   32.4640 C   0  0  0  0  0  0  0  0  0  0  0  0
   38.6940   40.1770   30.4580 C   0  0  0  0  0  0  0  0  0  0  0  0
   43.5980   39.4880   33.3030 O   0  0  0  0  0  0  0  0  0  0  0  0
   43.8230   40.7680   30.7060 O   0  0  0  0  0  0  0  0  0  0  0  0
   42.9720   38.9750   32.0550 C   0  0  0  0  0  0  0  0  0  0  0  0
  1  6  1  0
  3  2  1  0
  3  1  1  0
  4  3  1  0
  4  5  1  0
  5  9  1  0
  5 10  1  0
  7  2  1  0
 10  1  1  0
 10  8  1  0
M  END
$$$$

     RDKit          3D

  9  8  0  0  0  0  0  0  0  0999 V2000
   40.7170   35.7050   31.3520 N   0  0  0  0  0  0  0  0  0  0  0  0
   42.1910   37.7430   33.4990 N   0  0  0  0  0  0  0  0  0  0  0  0
   41.2180   38.6630   31.1650 S   0  0  0  0  0  0  0  0  0  0  0  0
   40.5910   40.8830   33.1250 N   0  0  0  0  0  0  0  0  0  0  0  0
   41.9790   40.9290   30.7640 C   0  0  0  0  0  0  0  0  0  0  0  0
   41.3640   37.5930   32.5650 C   0  0  0  0  0  0  0  0  0  0  0  0
   40.4530   36.3990   32.6200 C   0  0  0  0  0  0  0  0  0  0  0  0
   41.7380   40.1450   32.2690 S   0  0  0  0  0  0  0  0  0  0  0  0
   43.4020   40.0330   33.3100 S   0  0  0  0  0  0  0  0  0  0  0  0
  1  7  1  0
  3  8  1  0
  3  6  1  0
  6  7  1  0
  6  2  2  0
  8  5  1  0
  8  4  1  0
  8  9  1  0
M  END
$$$$

     RDKit          3D

 15 15  0  0  0  0  0  0  0  0999 V2000
   39.4860   38.8370   28.4110 N   0  0  0  0  0  0  0  0  0  0  0  0
   40.3390   36.2710   31.9790 C   0  0  0  0  0  0  0  0  0  0  0  0
   40.1860   36.9630   30.6430 N   0  0  0  0  0  0  0  0  0  0  0  0
   41.8010   37.5900   33.4440 N   0  0  0  0  0  0  0  0  0  0  0  0
   38.5460   40.9340   28.6830 C   0  0  0  0  0  0  0  0  0  0  0  0
   39.2900   40.4880   29.9280 C   0  0  0  0  0  0  0  0  0  0  0  0
   38.6070   42.7320   28.5050 S   0  0  0  0  0  0  0  0  0  0  0  0
   40.3400   42.8690   29.6280 N   0  0  0  0  0  0  0  0  0  0  0  0
   37.9010   43.1270   27.0790 C   0  0  0  0  0  0  0  0  0  0  0  0
   39.1010   39.9860   27.6330 C   0  0  0  0  0  0  0  0  0  0  0  0
   39.4550   41.1450   30.9920 O   0  0  0  0  0  0  0  0  0  0  0  0
   41.7910   36.5090   32.4670 C   0  0  0  0  0  0  0  0  0  0  0  0
   39.8000   38.2110   30.8080 C   0  0  0  0  0  0  0  0  0  0  0  0
   39.6330   38.6430   31.9470 O   0  0  0  0  0  0  0  0  0  0  0  0
   39.5850   39.0910   29.7560 N   0  0  0  0  0  0  0  0  0  0  0  0
  1 15  1  0
  2 12  1  0
  3 13  1  0
  3  2  1  0
  5  7  1  0
  5  6  1  0
  6 11  2  0
  7  9  1  0
  7  8  1  0
 10  1  1  0
 10  5  1  0
 12  4  1  0
 13 14  2  0
 15  6  1  0
 15 13  1  0
M  END
$$$$

     RDKit          3D

 16 17  0  0  0  0  0  0  0  0999 V2000
   40.3260   39.6070   28.9160 S   0  0  0  0  0  0  0  0  0  0  0  0
   43.1490   38.9010   31.8300 C   0  0  0  0  0  0  0  0  0  0  0  0
   39.5980   37.3820   31.2600 O   0  0  0  0  0  0  0  0  0  0  0  0
   41.0600   40.3400   32.4440 O   0  0  0  0  0  0  0  0  0  0  0  0
   41.2080   36.0280   32.3460 C   0  0  0  0  0  0  0  0  0  0  0  0
   37.8980   40.8940   28.9430 C   0  0  0  0  0  0  0  0  0  0  0  0
   42.6880   40.5910   32.2070 P   0  0  0  0  0  0  0  0  0  0  0  0
   41.2740   39.0910   30.3810 C   0  0  0  0  0  0  0  0  0  0  0  0
   39.2920   40.7720   29.6310 C   0  0  0  0  0  0  0  0  0  0  0  0
   39.0580   40.1040   31.0050 O   0  0  0  0  0  0  0  0  0  0  0  0
   40.7580   37.2610   31.6190 C   0  0  0  0  0  0  0  0  0  0  0  0
   42.9590   41.3880   30.9430 O   0  0  0  0  0  0  0  0  0  0  0  0
   40.3170   39.6170   31.4540 C   0  0  0  0  0  0  0  0  0  0  0  0
   41.8400   38.2050   31.3580 N   0  0  0  0  0  0  0  0  0  0  0  0
   43.1490   41.2150   33.5110 O   0  0  0  0  0  0  0  0  0  0  0  0
   39.9700   41.8930   30.0330 C   0  0  0  0  0  0  0  0  0  0  0  0
  1  9  1  0
  2  7  1  0
  3 11  2  0
  6  9  1  0
  7 12  2  0
  7  4  1  0
  7 15  1  0
  8  1  1  0
  8 14  1  0
  8 13  1  0
  9 16  1  0
  9 10  1  0
 11  5  1  0
 13 10  1  0
 13  4  1  0
 14 11  1  0
 14  2  1  0
M  END
$$$$

     RDKit          3D

 15 16  0  0  0  0  0  0  0  0999 V2000
   40.8580   42.1970   29.0370 C   0  0  0  0  0  0  0  0  0  0  0  0
   42.9220   40.6330   32.0800 N   0  0  0  0  0  0  0  0  0  0  0  0
   41.5880   37.3250   32.9970 C   0  0  0  0  0  0  0  0  0  0  0  0
   42.2090   38.5680   33.1390 C   0  0  0  0  0  0  0  0  0  0  0  0
   38.6650   40.4920   29.7260 C   0  0  0  0  0  0  0  0  0  0  0  0
   40.7970   37.9010   30.7620 N   0  0  0  0  0  0  0  0  0  0  0  0
   41.4620   39.1300   30.8230 N   0  0  0  0  0  0  0  0  0  0  0  0
   41.0430   39.8000   29.5230 C   0  0  0  0  0  0  0  0  0  0  0  0
   38.4040   41.9240   29.2540 C   0  0  0  0  0  0  0  0  0  0  0  0
   41.3800   41.1350   29.9900 N   0  0  0  0  0  0  0  0  0  0  0  0
   39.6720   39.8660   28.7700 C   0  0  0  0  0  0  0  0  0  0  0  0
   42.1910   39.4700   32.0530 C   0  0  0  0  0  0  0  0  0  0  0  0
   42.8350   38.9030   34.4850 C   0  0  0  0  0  0  0  0  0  0  0  0
   39.5970   42.7240   29.4960 O   0  0  0  0  0  0  0  0  0  0  0  0
   40.8980   36.9540   31.8080 C   0  0  0  0  0  0  0  0  0  0  0  0
  1 14  1  0
  1 10  1  0
  3  4  1  0
  4 13  1  0
  6  7  1  0
  6 15  1  0
  7 12  1  0
  8 11  1  0
  8 10  1  0
  8  7  1  0
  9 14  1  0
  9  5  1  0
 11  5  1  0
 12  2  1  0
 12  4  2  0
 15  3  2  0
M  END
$$$$

     RDKit          3D

 15 15  0  0  0  0  0  0  0  0999 V2000
   40.9210   36.3640   31.9650 C   0  0  0  0  0  0  0  0  0  0  0  0
   41.4950   38.6490   32.4360 O   0  0  0  0  0  0  0  0  0  0  0  0
   41.3900   39.2530   30.1740 N   0  0  0  0  0  0  0  0  0  0  0  0
   39.8520   39.8140   28.1810 C   0  0  0  0  0  0  0  0  0  0  0  0
   38.2760   41.8420   29.3680 C   0  0  0  0  0  0  0  0  0  0  0  0
   42.2570   36.3750   32.3730 N   0  0  0  0  0  0  0  0  0  0  0  0
   39.4970   38.5190   27.9220 O   0  0  0  0  0  0  0  0  0  0  0  0
   40.0300   39.1560   30.5620 C   0  0  0  0  0  0  0  0  0  0  0  0
   39.0140   40.1930   29.6980 P   0  0  0  0  0  0  0  0  0  0  0  0
   37.1730   41.5240   28.3750 C   0  0  0  0  0  0  0  0  0  0  0  0
   40.3970   37.7060   32.4270 C   0  0  0  0  0  0  0  0  0  0  0  0
   42.1430   39.0130   31.2930 C   0  0  0  0  0  0  0  0  0  0  0  0
   36.0070   42.8670   28.2680 S   0  0  0  0  0  0  0  0  0  0  0  0
   39.3930   40.3490   31.1480 O   0  0  0  0  0  0  0  0  0  0  0  0
   43.3620   38.9200   31.1870 O   0  0  0  0  0  0  0  0  0  0  0  0
  1  6  1  0
  1 11  1  0
  3 12  1  0
  5  9  1  0
  7  4  1  0
  8  3  1  0
  8 14  1  0
  9  4  1  0
  9  8  1  0
  9 14  1  0
 10  5  1  0
 11  2  1  0
 12  2  1  0
 13 10  1  0
 15 12  2  0
M  END
$$$$

     RDKit          3D

 11 11  0  0  0  0  0  0  0  0999 V2000
   43.2780   40.4070   30.1910 O   0  0  0  0  0  0  0  0  0  0  0  0
   42.3680   38.4160   30.9200 C   0  0  0  0  0  0  0  0  0  0  0  0
   41.3650   36.7790   32.5220 C   0  0  0  0  0  0  0  0  0  0  0  0
   39.5160   38.4540   30.1990 O   0  0  0  0  0  0  0  0  0  0  0  0
   41.0960   37.7050   31.3940 N   0  0  0  0  0  0  0  0  0  0  0  0
   39.9790   38.7000   31.5150 C   0  0  0  0  0  0  0  0  0  0  0  0
   43.1640   38.7310   32.1690 C   0  0  0  0  0  0  0  0  0  0  0  0
   41.4060   40.0460   32.6740 O   0  0  0  0  0  0  0  0  0  0  0  0
   39.9060   40.9110   32.5740 O   0  0  0  0  0  0  0  0  0  0  0  0
   40.4870   40.1940   31.5440 C   0  0  0  0  0  0  0  0  0  0  0  0
   42.1980   39.5560   30.0380 C   0  0  0  0  0  0  0  0  0  0  0  0
  2  5  1  0
  2  7  1  0
  5  6  1  0
  5  3  1  0
  6  4  1  0
  6 10  1  0
  9  8  1  0
 10  9  1  0
 10  8  1  0
 11  1  1  0
 11  2  1  0
M  END
$$$$

     RDKit          3D

 14 14  0  0  0  0  0  0  0  0999 V2000
   39.4910   42.5140   29.7310 C   0  0  0  0  0  0  0  0  0  0  0  0
   39.7820   37.6390   30.3350 O   0  0  0  0  0  0  0  0  0  0  0  0
   40.1310   38.7840   29.4970 C   0  0  0  0  0  0  0  0  0  0  0  0
   39.8750   40.0400   30.2250 C   0  0  0  0  0  0  0  0  0  0  0  0
   39.3200   38.8100   28.3330 O   0  0  0  0  0  0  0  0  0  0  0  0
   42.3490   38.2440   33.8470 O   0  0  0  0  0  0  0  0  0  0  0  0
   40.8700   36.2270   31.9850 C   0  0  0  0  0  0  0  0  0  0  0  0
   38.7420   43.2750   28.7570 O   0  0  0  0  0  0  0  0  0  0  0  0
   41.8390   38.5930   33.0450 C   0  0  0  0  0  0  0  0  0  0  0  0
   40.7100   40.0540   31.4100 O   0  0  0  0  0  0  0  0  0  0  0  0
   40.1950   41.3480   29.3560 C   0  0  0  0  0  0  0  0  0  0  0  0
   40.5030   37.5530   31.3330 C   0  0  0  0  0  0  0  0  0  0  0  0
   41.0750   41.2430   28.5570 O   0  0  0  0  0  0  0  0  0  0  0  0
   40.7210   38.7880   32.2220 C   0  0  0  0  0  0  0  0  0  0  0  0
  2 12  1  0
  3  5  1  0
  3  4  1  0
  3  2  1  0
  4 11  1  0
  4 10  1  0
  8  1  1  0
  9  6  1  0
 10 14  1  0
 11  1  1  0
 12  7  1  0
 12 14  1  0
 13 11  2  0
 14  9  1  0
M  END
$$$$

     RDKit          3D

 10  9  0  0  0  0  0  0  0  0999 V2000
   42.9060   40.3970   31.7380 C   0  0  0  0  0  0  0  0  0  0  0  0
   44.4320   39.9840   29.8690 C   0  0  0  0  0  0  0  0  0  0  0  0
   41.8070   38.0770   32.4190 C   0  0  0  0  0  0  0  0  0  0  0  0
   41.6520   39.8330   32.8980 S   0  0  0  0  0  0  0  0  0  0  0  0
   42.8470   37.4620   33.2620 N   0  0  0  0  0  0  0  0  0  0  0  0
   42.0980   39.2220   29.7580 N   0  0  0  0  0  0  0  0  0  0  0  0
   43.2580   39.4130   30.6400 C   0  0  0  0  0  0  0  0  0  0  0  0
   40.1020   40.4690   32.3360 C   0  0  0  0  0  0  0  0  0  0  0  0
   40.7700   35.9760   31.7030 C   0  0  0  0  0  0  0  0  0  0  0  0
   40.5290   37.2530   32.4490 C   0  0  0  0  0  0  0  0  0  0  0  0
  1  4  1  0
  3 10  1  0
  3  4  1  0
  3  5  1  0
  4  8  1  0
  6  7  1  0
  7  2  1  0
  7  1  1  0
  9 10  1  0
M  END
$$$$

     RDKit          3D

  7  6  0  0  0  0  0  0  0  0999 V2000
   41.8090   38.4370   32.0180 C   0  0  0  0  0  0  0  0  0  0  0  0
   39.5760   38.4900   31.0220 O   0  0  0  0  0  0  0  0  0  0  0  0
   40.1690   40.2760   32.0860 O   0  0  0  0  0  0  0  0  0  0  0  0
   42.9810   38.7350   34.0130 N   0  0  0  0  0  0  0  0  0  0  0  0
   40.4300   39.1010   31.7040 C   0  0  0  0  0  0  0  0  0  0  0  0
   42.2620   37.2770   31.3100 N   0  0  0  0  0  0  0  0  0  0  0  0
   41.8860   38.1650   33.3940 O   0  0  0  0  0  0  0  0  0  0  0  0
  1  6  1  0
  1  7  1  0
  2  5  2  0
  5  1  1  0
  5  3  1  0
  7  4  1  0
M  END
$$$$

     RDKit          3D

  7  6  0  0  0  0  0  0  0  0999 V2000
   40.9660   35.8640   31.8120 C   0  0  0  0  0  0  0  0  0  0  0  0
   41.4220   37.7610   33.2220 N   0  0  0  0  0  0  0  0  0  0  0  0
   40.9340   37.3000   32.0500 C   0  0  0  0  0  0  0  0  0  0  0  0
   40.1530   40.1890   32.0780 O   0  0  0  0  0  0  0  0  0  0  0  0
   39.2050   39.7220   30.1230 O   0  0  0  0  0  0  0  0  0  0  0  0
   40.4720   38.1070   31.0430 N   0  0  0  0  0  0  0  0  0  0  0  0
   39.9130   39.3780   31.1000 C   0  0  0  0  0  0  0  0  0  0  0  0
  1  3  1  0
  3  2  2  0
  5  7  2  0
  6  7  1  0
  6  3  1  0
  7  4  1  0
M  END
$$$$

     RDKit          3D

 14 13  0  0  0  0  0  0  0  0999 V2000
   40.1310   40.9580   30.0470 S   0  0  0  0  0  0  0  0  0  0  0  0
   38.6710   40.8650   30.0110 O   0  0  0  0  0  0  0  0  0  0  0  0
   42.1250   38.3370   32.8190 C   0  0  0  0  0  0  0  0  0  0  0  0
   38.1720   42.2330   27.9150 C   0  0  0  0  0  0  0  0  0  0  0  0
   40.6990   42.4500   27.7940 C   0  0  0  0  0  0  0  0  0  0  0  0
   41.8050   39.7590   33.1850 C   0  0  0  0  0  0  0  0  0  0  0  0
   41.7730   38.6690   30.0930 N   0  0  0  0  0  0  0  0  0  0  0  0
   39.4060   42.9620   28.4370 C   0  0  0  0  0  0  0  0  0  0  0  0
   40.6190   39.2000   30.7790 C   0  0  0  0  0  0  0  0  0  0  0  0
   40.6510   42.1420   30.8730 O   0  0  0  0  0  0  0  0  0  0  0  0
   41.1180   40.8800   28.4730 S   0  0  0  0  0  0  0  0  0  0  0  0
   40.0950   37.9520   31.4970 C   0  0  0  0  0  0  0  0  0  0  0  0
   40.8440   37.5010   32.5970 C   0  0  0  0  0  0  0  0  0  0  0  0
   43.1290   37.5250   31.7670 O   0  0  0  0  0  0  0  0  0  0  0  0
  1  9  1  0
  1 10  2  0
  2  1  2  0
  3  6  1  0
  4  8  1  0
  5  8  1  0
  5 11  1  0
  9  7  1  0
  9 12  1  0
 11  1  1  0
 12 13  1  0
 13  3  1  0
 14  3  1  0
M  END
$$$$

     RDKit          3D

 11 11  0  0  0  0  0  0  0  0999 V2000
   40.9330   37.7510   32.0600 C   0  0  0  0  0  0  0  0  0  0  0  0
   40.0370   38.5960   31.3660 C   0  0  0  0  0  0  0  0  0  0  0  0
   39.7760   40.3260   29.4220 C   0  0  0  0  0  0  0  0  0  0  0  0
   43.9850   40.7370   29.9830 O   0  0  0  0  0  0  0  0  0  0  0  0
   41.9170   39.6330   30.2940 N   0  0  0  0  0  0  0  0  0  0  0  0
   40.4060   36.7050   32.9260 N   0  0  0  0  0  0  0  0  0  0  0  0
   42.7980   38.9150   30.9970 C   0  0  0  0  0  0  0  0  0  0  0  0
   40.5850   39.5200   30.4020 C   0  0  0  0  0  0  0  0  0  0  0  0
   44.1890   39.4370   30.7600 C   0  0  0  0  0  0  0  0  0  0  0  0
   40.5210   40.4280   28.1990 O   0  0  0  0  0  0  0  0  0  0  0  0
   42.3540   37.8910   31.8860 C   0  0  0  0  0  0  0  0  0  0  0  0
  1  6  1  0
  2  1  2  0
  3  8  1  0
  4  9  1  0
  5  8  2  0
  5  7  1  0
  7 11  2  0
  8  2  1  0
  9  7  1  0
 10  3  1  0
 11  1  1  0
M  END
$$$$

     RDKit          3D

 12 12  0  0  0  0  0  0  0  0999 V2000
   41.4520   36.8300   32.6860 C   0  0  0  0  0  0  0  0  0  0  0  0
   41.1840   41.6690   30.0790 O   0  0  0  0  0  0  0  0  0  0  0  0
   41.4870   39.3570   30.2510 C   0  0  0  0  0  0  0  0  0  0  0  0
   40.4880   39.0600   32.3320 C   0  0  0  0  0  0  0  0  0  0  0  0
   41.4770   39.0020   28.8090 N   0  0  0  0  0  0  0  0  0  0  0  0
   42.0210   40.7490   30.2330 C   0  0  0  0  0  0  0  0  0  0  0  0
   43.3110   40.9460   30.2260 O   0  0  0  0  0  0  0  0  0  0  0  0
   41.7590   38.2450   32.3330 N   0  0  0  0  0  0  0  0  0  0  0  0
   42.4580   38.4480   31.0440 C   0  0  0  0  0  0  0  0  0  0  0  0
   40.0950   39.1620   30.8570 C   0  0  0  0  0  0  0  0  0  0  0  0
   39.7790   36.4050   32.2790 S   0  0  0  0  0  0  0  0  0  0  0  0
   38.9950   40.1970   30.5970 C   0  0  0  0  0  0  0  0  0  0  0  0
  2  6  2  0
  3  5  1  0
  3 10  1  0
  3  9  1  0
  4  8  1  0
  6  3  1  0
  7  6  1  0
  8  1  1  0
  9  8  1  0
 10 12  1  0
 10  4  1  0
 11  1  1  0
M  END
$$$$

     RDKit          3D

 10  9  0  0  0  0  0  0  0  0999 V2000
   39.7050   38.9190   30.6260 O   0  0  0  0  0  0  0  0  0  0  0  0
   40.8270   39.0020   31.1890 C   0  0  0  0  0  0  0  0  0  0  0  0
   40.9440   36.8140   33.2390 N   0  0  0  0  0  0  0  0  0  0  0  0
   42.1110   37.6050   32.7850 C   0  0  0  0  0  0  0  0  0  0  0  0
   42.7820   40.4470   29.9520 O   0  0  0  0  0  0  0  0  0  0  0  0
   42.4710   40.4790   31.1340 C   0  0  0  0  0  0  0  0  0  0  0  0
   41.1880   40.2580   31.6990 O   0  0  0  0  0  0  0  0  0  0  0  0
   40.1330   36.0020   32.4290 C   0  0  0  0  0  0  0  0  0  0  0  0
   41.8600   37.9550   31.3500 C   0  0  0  0  0  0  0  0  0  0  0  0
   43.4900   40.7820   32.1120 C   0  0  0  0  0  0  0  0  0  0  0  0
  1  2  2  0
  2  9  1  0
  2  7  1  0
  4  3  1  0
  5  6  2  0
  6  7  1  0
  6 10  1  0
  8  3  1  0
  9  4  1  0
M  END
$$$$
