
     RDKit          3D

 13 13  0  0  0  0  0  0  0  0999 V2000
   41.6010   35.8600   26.6790 C   0  0  0  0  0  0  0  0  0  0  0  0
   45.0530   35.1320   24.6790 S   0  0  0  0  0  0  0  0  0  0  0  0
   46.1240   35.1320   24.0180 O   0  0  0  0  0  0  0  0  0  0  0  0
   42.8430   34.7930   29.4550 C   0  0  0  0  0  0  0  0  0  0  0  0
   43.9060   34.0600   24.5250 C   0  0  0  0  0  0  0  0  0  0  0  0
   41.8480   33.9750   28.6350 C   0  0  0  0  0  0  0  0  0  0  0  0
   42.3820   33.5470   27.3430 N   0  0  0  0  0  0  0  0  0  0  0  0
   44.5450   36.4000   24.6300 O   0  0  0  0  0  0  0  0  0  0  0  0
   40.3820   35.9870   26.9750 O   0  0  0  0  0  0  0  0  0  0  0  0
   46.2370   34.4450   25.1600 O   0  0  0  0  0  0  0  0  0  0  0  0
   42.6290   34.2640   24.8880 C   0  0  0  0  0  0  0  0  0  0  0  0
   42.2300   34.5420   26.3620 C   0  0  0  0  0  0  0  0  0  0  0  0
   42.3010   36.8440   26.4550 O   0  0  0  0  0  0  0  0  0  0  0  0
  1  9  1  0
  2 10  1  0
  3  2  1  0
  3 10  1  0
  5  2  1  0
  5 11  1  0
  6  4  1  0
  7  6  1  0
  8  2  1  0
 12 11  1  0
 12  1  1  0
 12  7  1  0
 13  1  2  0
M  END
$$$$

     RDKit          3D

 18 19  0  0  0  0  0  0  0  0999 V2000
   43.0290   34.6130   24.5110 C   0  0  0  0  0  0  0  0  0  0  0  0
   40.1590   36.1120   25.1380 C   0  0  0  0  0  0  0  0  0  0  0  0
   41.6850   33.4500   28.7640 C   0  0  0  0  0  0  0  0  0  0  0  0
   40.5710   34.0300   28.1270 N   0  0  0  0  0  0  0  0  0  0  0  0
   40.2200   34.8220   24.3870 C   0  0  0  0  0  0  0  0  0  0  0  0
   42.5290   34.8460   25.9180 C   0  0  0  0  0  0  0  0  0  0  0  0
   41.1010   33.2980   30.1500 C   0  0  0  0  0  0  0  0  0  0  0  0
   40.0250   33.5930   25.0100 O   0  0  0  0  0  0  0  0  0  0  0  0
   41.1720   35.7540   26.2040 C   0  0  0  0  0  0  0  0  0  0  0  0
   43.3640   34.4460   27.2100 C   0  0  0  0  0  0  0  0  0  0  0  0
   41.8830   36.9350   26.2840 F   0  0  0  0  0  0  0  0  0  0  0  0
   43.8750   34.4880   29.6470 N   0  0  0  0  0  0  0  0  0  0  0  0
   40.2220   36.6510   28.4670 O   0  0  0  0  0  0  0  0  0  0  0  0
   38.8060   34.2000   22.9360 O   0  0  0  0  0  0  0  0  0  0  0  0
   42.8900   35.8930   23.8760 O   0  0  0  0  0  0  0  0  0  0  0  0
   40.4520   35.5650   27.6760 S   0  0  0  0  0  0  0  0  0  0  0  0
   42.7260   34.5650   28.6860 C   0  0  0  0  0  0  0  0  0  0  0  0
   38.8870   34.1650   24.3440 C   0  0  0  0  0  0  0  0  0  0  0  0
  2  9  1  0
  3  7  1  0
  4  3  1  0
  5  8  1  0
  5  2  1  0
  6  1  1  0
  6  9  1  0
  6 10  1  0
  9 11  1  0
  9 16  1  0
 10 17  1  0
 15  1  1  0
 16  4  1  0
 16 13  2  0
 17  3  1  0
 17 12  1  0
 18 14  1  0
 18  5  1  0
 18  8  1  0
M  END
$$$$

     RDKit          3D

 22 23  0  0  0  0  0  0  0  0999 V2000
   39.0530   34.2550   23.0650 O   0  0  0  0  0  0  0  0  0  0  0  0
   45.2980   35.0220   29.3690 N   0  0  0  0  0  0  0  0  0  0  0  0
   40.7010   36.4970   23.9120 O   0  0  0  0  0  0  0  0  0  0  0  0
   41.3390   33.0730   29.1710 C   0  0  0  0  0  0  0  0  0  0  0  0
   39.6800   36.9270   23.0700 C   0  0  0  0  0  0  0  0  0  0  0  0
   41.8950   33.9750   28.1500 N   0  0  0  0  0  0  0  0  0  0  0  0
   42.7430   33.4400   24.1830 O   0  0  0  0  0  0  0  0  0  0  0  0
   42.9390   36.0930   26.2090 O   0  0  0  0  0  0  0  0  0  0  0  0
   42.4260   34.8020   24.2520 C   0  0  0  0  0  0  0  0  0  0  0  0
   44.0000   34.4260   29.5670 C   0  0  0  0  0  0  0  0  0  0  0  0
   40.1620   37.0400   21.7430 O   0  0  0  0  0  0  0  0  0  0  0  0
   41.2240   34.2700   26.8090 C   0  0  0  0  0  0  0  0  0  0  0  0
   42.0880   35.1050   25.7320 C   0  0  0  0  0  0  0  0  0  0  0  0
   41.1900   35.2250   23.5350 C   0  0  0  0  0  0  0  0  0  0  0  0
   40.1590   34.2540   23.8630 C   0  0  0  0  0  0  0  0  0  0  0  0
   38.7540   35.6870   23.2400 C   0  0  0  0  0  0  0  0  0  0  0  0
   43.0580   34.8450   28.4500 C   0  0  0  0  0  0  0  0  0  0  0  0
   36.6480   35.1870   22.1190 O   0  0  0  0  0  0  0  0  0  0  0  0
   43.3490   36.0980   27.6890 C   0  0  0  0  0  0  0  0  0  0  0  0
   37.0780   37.4260   23.1830 C   0  0  0  0  0  0  0  0  0  0  0  0
   35.7970   37.4520   23.8510 C   0  0  0  0  0  0  0  0  0  0  0  0
   37.5980   36.2630   22.3170 C   0  0  0  0  0  0  0  0  0  0  0  0
  1 16  1  0
  1 15  1  0
  2 10  1  0
  5 11  1  0
  5 16  1  0
  5  3  1  0
  6 17  1  0
  6  4  1  0
  8 19  1  0
  9  7  1  0
  9 13  1  0
 12  6  1  0
 13  8  1  0
 13 12  2  0
 14 15  1  0
 14  3  1  0
 14  9  1  0
 16 22  1  0
 17 10  1  0
 19 17  2  0
 20 21  1  0
 22 18  1  0
 22 20  1  0
M  END
$$$$

     RDKit          3D

  7  6  0  0  0  0  0  0  0  0999 V2000
   40.9060   35.2950   25.5350 C   0  0  0  0  0  0  0  0  0  0  0  0
   42.7750   36.4910   26.7030 C   0  0  0  0  0  0  0  0  0  0  0  0
   44.1200   34.8300   27.8280 O   0  0  0  0  0  0  0  0  0  0  0  0
   43.4740   35.1020   26.8000 C   0  0  0  0  0  0  0  0  0  0  0  0
   43.7100   37.4430   26.2770 O   0  0  0  0  0  0  0  0  0  0  0  0
   41.5390   36.6360   25.7540 C   0  0  0  0  0  0  0  0  0  0  0  0
   43.3870   34.3330   25.8180 O   0  0  0  0  0  0  0  0  0  0  0  0
  1  6  1  0
  2  5  1  0
  2  4  1  0
  4  3  1  0
  6  2  1  0
  7  4  2  0
M  END
$$$$

     RDKit          3D

 11 11  0  0  0  0  0  0  0  0999 V2000
   39.4200   34.3420   25.2540 O   0  0  0  0  0  0  0  0  0  0  0  0
   42.4430   36.5020   24.8160 N   0  0  0  0  0  0  0  0  0  0  0  0
   40.8320   34.6510   23.5550 O   0  0  0  0  0  0  0  0  0  0  0  0
   41.7220   34.0980   26.7890 C   0  0  0  0  0  0  0  0  0  0  0  0
   41.7030   35.4540   26.0640 C   0  0  0  0  0  0  0  0  0  0  0  0
   41.8470   33.4020   29.4230 C   0  0  0  0  0  0  0  0  0  0  0  0
   42.3380   34.1440   28.2000 C   0  0  0  0  0  0  0  0  0  0  0  0
   40.6140   35.1050   24.9490 C   0  0  0  0  0  0  0  0  0  0  0  0
   42.6850   33.4130   25.9600 O   0  0  0  0  0  0  0  0  0  0  0  0
   42.7190   36.2150   27.0730 C   0  0  0  0  0  0  0  0  0  0  0  0
   42.8770   35.4100   28.2680 O   0  0  0  0  0  0  0  0  0  0  0  0
  3  8  2  0
  4  9  1  0
  4  7  1  0
  5  2  1  0
  5  4  1  0
  5 10  1  0
  7 11  1  0
  7  6  1  0
  8  1  1  0
  8  5  1  0
 10 11  1  0
M  END
$$$$

     RDKit          3D

 11 11  0  0  0  0  0  0  0  0999 V2000
   40.0470   34.7450   25.8270 C   0  0  0  0  0  0  0  0  0  0  0  0
   43.8540   34.5420   26.4700 O   0  0  0  0  0  0  0  0  0  0  0  0
   43.3850   35.6730   27.2400 C   0  0  0  0  0  0  0  0  0  0  0  0
   42.1170   35.9970   26.4870 C   0  0  0  0  0  0  0  0  0  0  0  0
   44.3020   36.8910   27.4430 C   0  0  0  0  0  0  0  0  0  0  0  0
   44.9540   37.1500   28.4940 O   0  0  0  0  0  0  0  0  0  0  0  0
   41.1160   36.3360   24.1470 C   0  0  0  0  0  0  0  0  0  0  0  0
   41.0320   35.1210   26.8410 C   0  0  0  0  0  0  0  0  0  0  0  0
   39.1950   34.8160   23.6870 O   0  0  0  0  0  0  0  0  0  0  0  0
   42.0410   36.7190   25.2540 C   0  0  0  0  0  0  0  0  0  0  0  0
   40.0920   35.2790   24.5620 C   0  0  0  0  0  0  0  0  0  0  0  0
  1  8  1  0
  3  2  1  0
  3  5  1  0
  4  8  2  0
  4  3  1  0
  5  6  2  0
  7 11  1  0
  7 10  2  0
  9 11  1  0
 10  4  1  0
 11  1  2  0
M  END
$$$$

     RDKit          3D

  7  6  0  0  0  0  0  0  0  0999 V2000
   42.2850   35.3810   26.6230 C   0  0  0  0  0  0  0  0  0  0  0  0
   42.7230   35.1850   25.1270 C   0  0  0  0  0  0  0  0  0  0  0  0
   41.3180   34.2980   27.0250 N   0  0  0  0  0  0  0  0  0  0  0  0
   43.8640   34.5680   24.8330 N   0  0  0  0  0  0  0  0  0  0  0  0
   43.3890   35.3490   27.5680 N   0  0  0  0  0  0  0  0  0  0  0  0
   41.6460   36.7730   26.5910 C   0  0  0  0  0  0  0  0  0  0  0  0
   40.4420   36.5710   25.6340 O   0  0  0  0  0  0  0  0  0  0  0  0
  1  3  1  0
  1  5  1  0
  2  1  1  0
  4  2  2  0
  6  1  1  0
  7  6  1  0
M  END
$$$$

     RDKit          3D

  7  6  0  0  0  0  0  0  0  0999 V2000
   44.3570   34.8810   26.4860 C   0  0  0  0  0  0  0  0  0  0  0  0
   43.4990   34.1760   27.5370 C   0  0  0  0  0  0  0  0  0  0  0  0
   42.0170   34.5190   27.3660 C   0  0  0  0  0  0  0  0  0  0  0  0
   41.2160   35.6140   25.2040 C   0  0  0  0  0  0  0  0  0  0  0  0
   44.1480   36.1290   26.5590 N   0  0  0  0  0  0  0  0  0  0  0  0
   41.9190   35.7090   26.5010 N   0  0  0  0  0  0  0  0  0  0  0  0
   42.0360   37.0680   26.8390 O   0  0  0  0  0  0  0  0  0  0  0  0
  1  5  1  0
  1  2  1  0
  3  2  1  0
  4  6  1  0
  6  7  1  0
  6  3  1  0
M  END
$$$$

     RDKit          3D

 16 17  0  0  0  0  0  0  0  0999 V2000
   43.0750   34.0540   26.5390 C   0  0  0  0  0  0  0  0  0  0  0  0
   41.7000   33.7720   27.1170 N   0  0  0  0  0  0  0  0  0  0  0  0
   42.9630   34.4190   29.1880 C   0  0  0  0  0  0  0  0  0  0  0  0
   43.5140   35.5140   26.8600 C   0  0  0  0  0  0  0  0  0  0  0  0
   42.8780   35.3870   23.8270 C   0  0  0  0  0  0  0  0  0  0  0  0
   41.5650   36.2050   21.9690 O   0  0  0  0  0  0  0  0  0  0  0  0
   40.9400   36.7570   23.1220 C   0  0  0  0  0  0  0  0  0  0  0  0
   41.6580   33.9900   28.5780 C   0  0  0  0  0  0  0  0  0  0  0  0
   42.5760   36.7290   26.4580 C   0  0  0  0  0  0  0  0  0  0  0  0
   43.7200   35.5080   28.3750 C   0  0  0  0  0  0  0  0  0  0  0  0
   41.6090   36.1140   24.3330 C   0  0  0  0  0  0  0  0  0  0  0  0
   40.5250   34.4400   26.5510 C   0  0  0  0  0  0  0  0  0  0  0  0
   39.6810   34.2760   24.3020 C   0  0  0  0  0  0  0  0  0  0  0  0
   40.7030   35.0710   25.1270 C   0  0  0  0  0  0  0  0  0  0  0  0
   41.8630   37.1750   25.2800 O   0  0  0  0  0  0  0  0  0  0  0  0
   40.9980   32.7840   29.2400 C   0  0  0  0  0  0  0  0  0  0  0  0
  1  4  1  0
  2  1  1  0
  2  8  1  0
  4  9  1  0
  4 10  1  0
  6  7  1  0
  7 11  1  0
  8  3  1  0
  8 16  1  0
 10  3  1  0
 11  5  1  0
 11 14  1  0
 11 15  1  0
 12  2  1  0
 14 13  1  0
 14 12  1  0
 15  9  1  0
M  END
$$$$

     RDKit          3D

 14 14  0  0  0  0  0  0  0  0999 V2000
   43.1260   37.8320   27.9920 C   0  0  0  0  0  0  0  0  0  0  0  0
   41.3770   36.5780   26.3310 C   0  0  0  0  0  0  0  0  0  0  0  0
   42.7620   36.7400   26.9930 C   0  0  0  0  0  0  0  0  0  0  0  0
   45.0420   35.8790   26.5720 O   0  0  0  0  0  0  0  0  0  0  0  0
   43.2140   34.4740   25.9750 C   0  0  0  0  0  0  0  0  0  0  0  0
   39.4170   34.4970   23.7930 C   0  0  0  0  0  0  0  0  0  0  0  0
   42.4020   33.8180   27.1460 C   0  0  0  0  0  0  0  0  0  0  0  0
   43.8690   35.7260   26.5880 C   0  0  0  0  0  0  0  0  0  0  0  0
   40.2600   35.5810   24.2410 O   0  0  0  0  0  0  0  0  0  0  0  0
   40.9130   33.6630   27.3190 O   0  0  0  0  0  0  0  0  0  0  0  0
   42.4400   34.9460   24.8940 O   0  0  0  0  0  0  0  0  0  0  0  0
   39.6750   33.2930   24.2880 O   0  0  0  0  0  0  0  0  0  0  0  0
   41.1250   35.3850   25.3010 C   0  0  0  0  0  0  0  0  0  0  0  0
   38.2980   34.8010   22.7890 C   0  0  0  0  0  0  0  0  0  0  0  0
  2  3  2  0
  3  1  1  0
  4  8  2  0
  5  8  1  0
  5  7  1  0
  6  9  1  0
  6 12  2  0
  7 10  1  0
  8  3  1  0
 11 13  1  0
 11  5  1  0
 13  9  1  0
 13  2  1  0
 14  6  1  0
M  END
$$$$

     RDKit          3D

 17 17  0  0  0  0  0  0  0  0999 V2000
   42.6530   35.0220   27.1240 C   0  0  0  0  0  0  0  0  0  0  0  0
   41.6370   34.2050   27.4570 C   0  0  0  0  0  0  0  0  0  0  0  0
   43.8620   35.3920   27.8970 C   0  0  0  0  0  0  0  0  0  0  0  0
   40.8690   35.3220   23.8960 C   0  0  0  0  0  0  0  0  0  0  0  0
   44.3000   35.8880   24.5780 C   0  0  0  0  0  0  0  0  0  0  0  0
   42.3610   35.5510   25.9390 N   0  0  0  0  0  0  0  0  0  0  0  0
   39.7840   36.1900   24.1540 N   0  0  0  0  0  0  0  0  0  0  0  0
   45.0030   36.9960   23.9400 N   0  0  0  0  0  0  0  0  0  0  0  0
   41.4990   34.7150   25.1020 C   0  0  0  0  0  0  0  0  0  0  0  0
   42.7280   37.6410   24.9700 O   0  0  0  0  0  0  0  0  0  0  0  0
   40.4610   32.5670   28.9380 C   0  0  0  0  0  0  0  0  0  0  0  0
   43.1140   36.5210   25.2810 C   0  0  0  0  0  0  0  0  0  0  0  0
   39.2640   36.1650   25.2230 O   0  0  0  0  0  0  0  0  0  0  0  0
   42.6510   33.5720   29.2920 O   0  0  0  0  0  0  0  0  0  0  0  0
   41.6170   33.4300   28.6500 C   0  0  0  0  0  0  0  0  0  0  0  0
   39.3190   36.8210   23.1570 O   0  0  0  0  0  0  0  0  0  0  0  0
   40.4860   34.1320   26.2330 S   0  0  0  0  0  0  0  0  0  0  0  0
  1  2  2  0
  1  3  1  0
  2 15  1  0
  4  7  1  0
  5 12  1  0
  6  1  1  0
  7 13  2  0
  8  5  1  0
  9  4  1  0
  9  6  1  0
  9 17  1  0
 10 12  2  0
 12  6  1  0
 15 11  1  0
 15 14  2  0
 16  7  2  0
 17  2  1  0
M  END
$$$$

     RDKit          3D

 20 21  0  0  0  0  0  0  0  0999 V2000
   40.3180   33.6490   25.0830 C   0  0  0  0  0  0  0  0  0  0  0  0
   41.5440   33.7360   29.6360 C   0  0  0  0  0  0  0  0  0  0  0  0
   34.9080   34.1920   31.2490 C   0  0  0  0  0  0  0  0  0  0  0  0
   40.3440   34.9900   27.7820 C   0  0  0  0  0  0  0  0  0  0  0  0
   34.8110   33.3630   29.9040 C   0  0  0  0  0  0  0  0  0  0  0  0
   33.5410   34.7310   31.3570 O   0  0  0  0  0  0  0  0  0  0  0  0
   35.9560   33.5240   28.9480 C   0  0  0  0  0  0  0  0  0  0  0  0
   36.1740   34.8500   31.0430 C   0  0  0  0  0  0  0  0  0  0  0  0
   39.4580   33.4350   26.4170 C   0  0  0  0  0  0  0  0  0  0  0  0
   37.8250   32.1970   25.1330 O   0  0  0  0  0  0  0  0  0  0  0  0
   34.5320   34.2270   28.7130 C   0  0  0  0  0  0  0  0  0  0  0  0
   33.7260   34.1800   27.7770 O   0  0  0  0  0  0  0  0  0  0  0  0
   38.0420   33.7460   27.1960 C   0  0  0  0  0  0  0  0  0  0  0  0
   40.8580   33.9460   28.4920 N   0  0  0  0  0  0  0  0  0  0  0  0
   40.9350   36.0740   27.7090 O   0  0  0  0  0  0  0  0  0  0  0  0
   34.3020   32.0270   30.4350 C   0  0  0  0  0  0  0  0  0  0  0  0
   37.2840   32.6060   26.3730 C   0  0  0  0  0  0  0  0  0  0  0  0
   39.1670   34.7900   26.8800 C   0  0  0  0  0  0  0  0  0  0  0  0
   37.1870   35.8780   27.9620 C   0  0  0  0  0  0  0  0  0  0  0  0
   36.8810   34.5400   28.0910 C   0  0  0  0  0  0  0  0  0  0  0  0
  3  8  1  0
  3  6  1  0
  4 14  1  0
  5 16  1  0
  5  3  1  0
  7 20  1  0
  7  5  1  0
  9  1  1  0
  9 18  1  0
  9 13  1  0
 10 17  1  0
 11 12  1  0
 11  7  1  0
 11  5  1  0
 13 17  1  0
 13 20  1  0
 14  2  1  0
 15  4  2  0
 18 13  1  0
 18  4  1  0
 20 19  1  0
M  END
$$$$

     RDKit          3D

 19 21  0  0  0  0  0  0  0  0999 V2000
   35.7760   36.9780   29.4040 O   0  0  0  0  0  0  0  0  0  0  0  0
   39.8690   33.6920   29.0700 C   0  0  0  0  0  0  0  0  0  0  0  0
   34.6610   34.9190   29.4170 C   0  0  0  0  0  0  0  0  0  0  0  0
   32.6900   32.9660   28.6840 Br  0  0  0  0  0  0  0  0  0  0  0  0
   41.0210   34.3730   24.9190 C   0  0  0  0  0  0  0  0  0  0  0  0
   35.8900   35.6130   29.3160 C   0  0  0  0  0  0  0  0  0  0  0  0
   41.3730   33.6090   28.7350 C   0  0  0  0  0  0  0  0  0  0  0  0
   34.5370   33.6350   28.8990 C   0  0  0  0  0  0  0  0  0  0  0  0
   40.0170   35.1990   27.0590 C   0  0  0  0  0  0  0  0  0  0  0  0
   42.1730   34.6100   29.3330 O   0  0  0  0  0  0  0  0  0  0  0  0
   38.3310   35.6170   29.0770 C   0  0  0  0  0  0  0  0  0  0  0  0
   41.8270   33.5590   27.2520 C   0  0  0  0  0  0  0  0  0  0  0  0
   35.7980   32.8170   28.3970 S   0  0  0  0  0  0  0  0  0  0  0  0
   41.7290   34.2340   23.8770 C   0  0  0  0  0  0  0  0  0  0  0  0
   40.7550   34.0360   26.3350 N   0  0  0  0  0  0  0  0  0  0  0  0
   39.4010   34.9780   28.3580 C   0  0  0  0  0  0  0  0  0  0  0  0
   37.1610   33.4820   28.7040 C   0  0  0  0  0  0  0  0  0  0  0  0
   37.0770   34.8920   29.0720 C   0  0  0  0  0  0  0  0  0  0  0  0
   38.5490   32.9000   28.8100 N   0  0  0  0  0  0  0  0  0  0  0  0
  2 19  1  0
  5 15  1  0
  6  1  1  0
  6  3  2  0
  7  2  1  0
  7 10  1  0
  8  4  1  0
  8  3  1  0
 12  7  1  0
 13 17  1  0
 13  8  1  0
 14  5  2  0
 15  9  1  0
 15 12  1  0
 16  9  1  0
 16  2  1  0
 16 11  1  0
 17 19  1  0
 17 18  2  0
 18 11  1  0
 18  6  1  0
M  END
$$$$

     RDKit          3D

  9  8  0  0  0  0  0  0  0  0999 V2000
   41.2220   33.1220   29.2540 C   0  0  0  0  0  0  0  0  0  0  0  0
   43.8300   36.3530   27.3670 O   0  0  0  0  0  0  0  0  0  0  0  0
   41.8690   34.1960   28.4260 C   0  0  0  0  0  0  0  0  0  0  0  0
   42.1000   37.6150   26.7810 O   0  0  0  0  0  0  0  0  0  0  0  0
   41.1150   35.6130   25.2860 O   0  0  0  0  0  0  0  0  0  0  0  0
   42.7740   36.5700   26.7080 C   0  0  0  0  0  0  0  0  0  0  0  0
   42.3490   33.5230   27.2150 N   0  0  0  0  0  0  0  0  0  0  0  0
   42.5080   35.6050   25.5680 C   0  0  0  0  0  0  0  0  0  0  0  0
   42.9870   34.2340   26.0850 C   0  0  0  0  0  0  0  0  0  0  0  0
  3  1  1  0
  6  4  2  0
  6  2  1  0
  7  3  1  0
  8  5  1  0
  8  9  1  0
  8  6  1  0
  9  7  1  0
M  END
$$$$

     RDKit          3D

 16 15  0  0  0  0  0  0  0  0999 V2000
   45.2090   36.4370   28.4700 O   0  0  0  0  0  0  0  0  0  0  0  0
   41.6760   34.2360   23.9430 C   0  0  0  0  0  0  0  0  0  0  0  0
   43.8490   34.7630   27.5320 C   0  0  0  0  0  0  0  0  0  0  0  0
   41.5560   37.8830   23.4450 S   0  0  0  0  0  0  0  0  0  0  0  0
   44.0150   34.1780   28.9570 C   0  0  0  0  0  0  0  0  0  0  0  0
   43.4050   37.5490   23.9730 S   0  0  0  0  0  0  0  0  0  0  0  0
   43.0140   35.2020   25.3670 C   0  0  0  0  0  0  0  0  0  0  0  0
   39.5990   34.8680   25.8590 O   0  0  0  0  0  0  0  0  0  0  0  0
   42.7340   34.3900   29.6680 N   0  0  0  0  0  0  0  0  0  0  0  0
   43.8700   36.2420   27.9180 C   0  0  0  0  0  0  0  0  0  0  0  0
   41.7350   33.4210   29.1330 C   0  0  0  0  0  0  0  0  0  0  0  0
   42.8310   34.4480   26.5390 O   0  0  0  0  0  0  0  0  0  0  0  0
   40.9070   36.2090   23.6690 C   0  0  0  0  0  0  0  0  0  0  0  0
   40.7350   35.4140   25.9920 C   0  0  0  0  0  0  0  0  0  0  0  0
   40.3450   33.4720   23.7770 C   0  0  0  0  0  0  0  0  0  0  0  0
   41.6170   35.3500   24.7660 C   0  0  0  0  0  0  0  0  0  0  0  0
  2 16  1  0
  3 10  1  0
  3  5  1  0
  4 13  1  0
  4  6  1  0
  5  9  1  0
  7 12  1  0
  8 14  1  0
 10  1  1  0
 11  9  1  0
 12  3  1  0
 15  2  1  0
 16 13  1  0
 16  7  1  0
 16 14  1  0
M  END
$$$$

     RDKit          3D

 17 17  0  0  0  0  0  0  0  0999 V2000
   44.6740   34.8750   28.1830 N   0  0  0  0  0  0  0  0  0  0  0  0
   40.6110   34.1900   25.8370 C   0  0  0  0  0  0  0  0  0  0  0  0
   36.8560   35.2070   22.7660 O   0  0  0  0  0  0  0  0  0  0  0  0
   41.7290   33.1830   29.4690 C   0  0  0  0  0  0  0  0  0  0  0  0
   43.7870   34.8860   27.1130 N   0  0  0  0  0  0  0  0  0  0  0  0
   37.9520   35.0520   23.3000 C   0  0  0  0  0  0  0  0  0  0  0  0
   38.4670   37.3250   22.9170 N   0  0  0  0  0  0  0  0  0  0  0  0
   42.7500   34.0420   28.8160 N   0  0  0  0  0  0  0  0  0  0  0  0
   38.3570   33.9900   23.8180 O   0  0  0  0  0  0  0  0  0  0  0  0
   39.7890   36.0790   24.3200 N   0  0  0  0  0  0  0  0  0  0  0  0
   42.9780   34.2220   24.8230 C   0  0  0  0  0  0  0  0  0  0  0  0
   44.0600   34.3040   29.1760 C   0  0  0  0  0  0  0  0  0  0  0  0
   41.2370   35.9980   24.4470 C   0  0  0  0  0  0  0  0  0  0  0  0
   41.0890   34.7470   27.1920 C   0  0  0  0  0  0  0  0  0  0  0  0
   42.5270   34.6470   27.6620 C   0  0  0  0  0  0  0  0  0  0  0  0
   38.8710   36.2480   23.2970 C   0  0  0  0  0  0  0  0  0  0  0  0
   41.4840   34.4720   24.6200 C   0  0  0  0  0  0  0  0  0  0  0  0
  1 12  1  0
  2 14  1  0
  3  6  2  0
  5 15  1  0
  5  1  1  0
  6  9  1  0
  7 16  2  0
  8 12  1  0
  8  4  1  0
 10 13  1  0
 13 17  1  0
 15 14  1  0
 15  8  1  0
 16  6  1  0
 16 10  1  0
 17 11  1  0
 17  2  1  0
M  END
$$$$

     RDKit          3D

 19 19  0  0  0  0  0  0  0  0999 V2000
   40.1820   34.3810   22.4020 O   0  0  0  0  0  0  0  0  0  0  0  0
   43.6590   34.6100   29.2340 C   0  0  0  0  0  0  0  0  0  0  0  0
   41.2130   33.7060   29.2990 C   0  0  0  0  0  0  0  0  0  0  0  0
   40.4000   36.3080   24.1360 C   0  0  0  0  0  0  0  0  0  0  0  0
   41.1420   35.8170   25.3000 N   0  0  0  0  0  0  0  0  0  0  0  0
   39.9370   33.8880   25.2190 O   0  0  0  0  0  0  0  0  0  0  0  0
   42.0630   36.5240   26.0680 C   0  0  0  0  0  0  0  0  0  0  0  0
   40.8330   35.1930   23.1650 C   0  0  0  0  0  0  0  0  0  0  0  0
   40.9850   34.4760   25.5970 C   0  0  0  0  0  0  0  0  0  0  0  0
   42.7970   35.6070   27.0490 C   0  0  0  0  0  0  0  0  0  0  0  0
   42.2030   35.6320   22.5430 C   0  0  0  0  0  0  0  0  0  0  0  0
   41.9550   37.0370   21.9760 C   0  0  0  0  0  0  0  0  0  0  0  0
   43.5620   35.7220   28.2610 N   0  0  0  0  0  0  0  0  0  0  0  0
   43.3350   34.9390   23.3590 C   0  0  0  0  0  0  0  0  0  0  0  0
   44.3270   36.9320   28.4340 C   0  0  0  0  0  0  0  0  0  0  0  0
   40.6740   32.5750   28.7620 O   0  0  0  0  0  0  0  0  0  0  0  0
   42.5730   33.6820   29.4550 C   0  0  0  0  0  0  0  0  0  0  0  0
   42.3860   37.6910   25.8850 O   0  0  0  0  0  0  0  0  0  0  0  0
   42.4700   34.0310   26.3830 S   0  0  0  0  0  0  0  0  0  0  0  0
  2 17  1  0
  3 17  1  0
  4  5  1  0
  5  9  1  0
  5  7  1  0
  6  9  2  0
  7 10  1  0
  8  1  1  0
  8  4  1  0
  9 19  1  0
 10 13  1  0
 11  8  1  0
 11 14  1  0
 12 11  1  0
 13 15  1  0
 13  2  1  0
 16  3  1  0
 18  7  2  0
 19 10  1  0
M  END
$$$$

     RDKit          3D

  9  9  0  0  0  0  0  0  0  0999 V2000
   43.5580   36.3980   28.4630 N   0  0  0  0  0  0  0  0  0  0  0  0
   42.6000   35.6660   24.4690 C   0  0  0  0  0  0  0  0  0  0  0  0
   44.1520   35.7060   26.0800 C   0  0  0  0  0  0  0  0  0  0  0  0
   43.0090   33.7020   26.4440 C   0  0  0  0  0  0  0  0  0  0  0  0
   43.4060   34.7920   25.2020 N   0  0  0  0  0  0  0  0  0  0  0  0
   41.3670   36.3370   25.3090 C   0  0  0  0  0  0  0  0  0  0  0  0
   43.7750   33.9070   27.7660 N   0  0  0  0  0  0  0  0  0  0  0  0
   41.8640   36.7730   26.6800 C   0  0  0  0  0  0  0  0  0  0  0  0
   43.2080   36.1670   27.2330 C   0  0  0  0  0  0  0  0  0  0  0  0
  2  5  1  0
  2  6  1  0
  3  9  1  0
  4  7  1  0
  5  3  1  0
  5  4  1  0
  6  8  1  0
  8  9  1  0
  9  1  2  0
M  END
$$$$

     RDKit          3D

 37 40  0  0  0  0  0  0  0  0999 V2000
   31.9000   33.9580   29.3400 O   0  0  0  0  0  0  0  0  0  0  0  0
   40.5620   34.8010   25.1050 C   0  0  0  0  0  0  0  0  0  0  0  0
   46.4940   36.0800   30.1750 C   0  0  0  0  0  0  0  0  0  0  0  0
   33.7470   35.5090   29.8690 C   0  0  0  0  0  0  0  0  0  0  0  0
   40.7010   36.2770   25.3130 C   0  0  0  0  0  0  0  0  0  0  0  0
   43.4940   34.5920   28.9640 C   0  0  0  0  0  0  0  0  0  0  0  0
   41.4890   34.1960   25.8860 C   0  0  0  0  0  0  0  0  0  0  0  0
   41.3720   34.5960   27.3780 C   0  0  0  0  0  0  0  0  0  0  0  0
   47.6280   33.5780   29.4420 C   0  0  0  0  0  0  0  0  0  0  0  0
   41.8710   37.8060   28.4240 C   0  0  0  0  0  0  0  0  0  0  0  0
   46.4200   34.0030   28.8330 C   0  0  0  0  0  0  0  0  0  0  0  0
   35.8210   35.2140   30.9410 C   0  0  0  0  0  0  0  0  0  0  0  0
   34.4820   37.8470   31.2980 C   0  0  0  0  0  0  0  0  0  0  0  0
   41.6560   36.8750   26.0770 C   0  0  0  0  0  0  0  0  0  0  0  0
   36.6180   35.0740   29.6000 C   0  0  0  0  0  0  0  0  0  0  0  0
   40.2100   34.5900   29.1710 C   0  0  0  0  0  0  0  0  0  0  0  0
   34.8410   36.3250   31.1180 C   0  0  0  0  0  0  0  0  0  0  0  0
   38.2840   34.4750   29.7230 S   0  0  0  0  0  0  0  0  0  0  0  0
   41.2210   33.8390   29.5340 C   0  0  0  0  0  0  0  0  0  0  0  0
   40.2990   35.2000   28.0010 O   0  0  0  0  0  0  0  0  0  0  0  0
   32.5140   36.1180   31.7180 C   0  0  0  0  0  0  0  0  0  0  0  0
   44.0590   36.8030   27.8280 C   0  0  0  0  0  0  0  0  0  0  0  0
   31.0970   34.4830   30.0950 C   0  0  0  0  0  0  0  0  0  0  0  0
   42.5890   37.1990   27.4090 N   0  0  0  0  0  0  0  0  0  0  0  0
   42.1980   34.1220   28.4430 C   0  0  0  0  0  0  0  0  0  0  0  0
   32.5020   36.9630   32.6150 O   0  0  0  0  0  0  0  0  0  0  0  0
   29.7040   34.3560   30.0830 C   0  0  0  0  0  0  0  0  0  0  0  0
   44.3430   35.6220   28.8230 C   0  0  0  0  0  0  0  0  0  0  0  0
   45.7400   35.3100   29.3480 C   0  0  0  0  0  0  0  0  0  0  0  0
   29.0550   34.9370   31.4280 C   0  0  0  0  0  0  0  0  0  0  0  0
   30.0040   35.6170   31.8760 C   0  0  0  0  0  0  0  0  0  0  0  0
   48.3130   34.4080   30.2900 C   0  0  0  0  0  0  0  0  0  0  0  0
   44.5880   36.2870   26.4920 O   0  0  0  0  0  0  0  0  0  0  0  0
   31.3280   35.4570   31.2770 C   0  0  0  0  0  0  0  0  0  0  0  0
   27.5690   34.9380   31.3500 C   0  0  0  0  0  0  0  0  0  0  0  0
   33.6660   35.4690   31.0850 C   0  0  0  0  0  0  0  0  0  0  0  0
   47.8190   35.6740   30.6470 N   0  0  0  0  0  0  0  0  0  0  0  0
  1 23  2  0
  2  5  1  0
  2  7  1  0
  3 37  1  0
  5 14  1  0
  8  7  1  0
  8 20  1  0
  8 25  1  0
  9 32  1  0
 11 29  1  0
 11  9  2  0
 12 17  1  0
 14 24  1  0
 15 18  1  0
 15 12  1  0
 16 19  1  0
 16 18  1  0
 17 13  1  0
 20 16  1  0
 21 26  2  0
 22 33  1  0
 22 28  1  0
 23 34  1  0
 24 22  1  0
 24 10  1  0
 25  6  1  0
 25 19  1  0
 27 23  1  0
 27 30  1  0
 28  6  2  0
 28 29  1  0
 29  3  2  0
 30 35  1  0
 30 31  1  0
 32 37  2  0
 34 21  1  0
 34 31  2  0
 36  4  1  0
 36 17  1  0
 36 21  1  0
M  END
$$$$

     RDKit          3D

 22 23  0  0  0  0  0  0  0  0999 V2000
   37.5990   35.1720   26.1370 C   0  0  0  0  0  0  0  0  0  0  0  0
   36.3240   34.7930   26.6230 C   0  0  0  0  0  0  0  0  0  0  0  0
   41.0860   35.4830   27.4600 C   0  0  0  0  0  0  0  0  0  0  0  0
   35.7100   33.5250   27.1820 C   0  0  0  0  0  0  0  0  0  0  0  0
   41.0710   32.6870   29.7540 C   0  0  0  0  0  0  0  0  0  0  0  0
   38.6650   34.1790   27.5070 C   0  0  0  0  0  0  0  0  0  0  0  0
   36.7430   36.4400   24.3530 C   0  0  0  0  0  0  0  0  0  0  0  0
   38.2260   35.0790   21.9320 O   0  0  0  0  0  0  0  0  0  0  0  0
   41.6280   34.0610   29.3690 C   0  0  0  0  0  0  0  0  0  0  0  0
   37.7670   35.4840   24.7950 C   0  0  0  0  0  0  0  0  0  0  0  0
   41.3090   34.7840   24.0110 O   0  0  0  0  0  0  0  0  0  0  0  0
   38.9540   35.0100   26.7120 N   0  0  0  0  0  0  0  0  0  0  0  0
   38.3790   34.0080   22.8640 C   0  0  0  0  0  0  0  0  0  0  0  0
   43.0430   33.8750   28.8620 N   0  0  0  0  0  0  0  0  0  0  0  0
   35.3510   35.6300   26.1310 C   0  0  0  0  0  0  0  0  0  0  0  0
   40.1510   35.6560   26.3420 C   0  0  0  0  0  0  0  0  0  0  0  0
   38.8360   34.5540   24.1820 C   0  0  0  0  0  0  0  0  0  0  0  0
   35.6870   36.4360   25.0720 C   0  0  0  0  0  0  0  0  0  0  0  0
   40.0310   35.4230   23.9530 C   0  0  0  0  0  0  0  0  0  0  0  0
   36.7740   37.9920   22.8890 I   0  0  0  0  0  0  0  0  0  0  0  0
   40.0330   33.3910   27.4070 C   0  0  0  0  0  0  0  0  0  0  0  0
   40.6100   34.6290   28.3420 C   0  0  0  0  0  0  0  0  0  0  0  0
  1  2  1  0
  1 12  1  0
  2  4  1  0
  3 22  1  0
  7 10  1  0
  7 18  2  0
  8 13  1  0
  9  5  1  0
 10  1  2  0
 12  6  1  0
 13 17  1  0
 14  9  1  0
 15  2  2  0
 16 12  1  0
 16  3  1  0
 17 10  1  0
 18 15  1  0
 19 11  1  0
 19 17  1  0
 20  7  1  0
 21  6  1  0
 21 22  1  0
 22  9  1  0
M  END
$$$$
