
     RDKit          3D

  9  9  0  0  0  0  0  0  0  0999 V2000
   36.1700   42.7890   24.5880 S   0  0  0  0  0  0  0  0  0  0  0  0
   36.0360   42.6530   25.8840 O   0  0  0  0  0  0  0  0  0  0  0  0
   36.6530   43.4680   23.4490 O   0  0  0  0  0  0  0  0  0  0  0  0
   37.4350   39.7460   22.7310 C   0  0  0  0  0  0  0  0  0  0  0  0
   38.2370   40.3610   25.4180 C   0  0  0  0  0  0  0  0  0  0  0  0
   36.8200   41.0200   23.2600 C   0  0  0  0  0  0  0  0  0  0  0  0
   38.8200   39.6300   23.3530 C   0  0  0  0  0  0  0  0  0  0  0  0
   37.3870   41.3290   24.5690 C   0  0  0  0  0  0  0  0  0  0  0  0
   38.7230   39.0790   24.8580 N   0  0  0  0  0  0  0  0  0  0  0  0
  1  2  1  0
  3  1  1  0
  4  6  1  0
  4  7  1  0
  6  8  1  0
  7  9  1  0
  8  1  1  0
  8  5  2  0
  9  5  1  0
M  END
$$$$

     RDKit          3D

 14 14  0  0  0  0  0  0  0  0999 V2000
   35.4450   41.5090   24.3750 P   0  0  0  0  0  0  0  0  0  0  0  0
   37.1700   40.9380   24.4380 C   0  0  0  0  0  0  0  0  0  0  0  0
   34.4260   40.8130   25.2530 O   0  0  0  0  0  0  0  0  0  0  0  0
   34.4200   39.2010   21.4460 C   0  0  0  0  0  0  0  0  0  0  0  0
   36.4810   40.8450   21.3230 C   0  0  0  0  0  0  0  0  0  0  0  0
   35.2950   40.3300   21.9260 N   0  0  0  0  0  0  0  0  0  0  0  0
   37.9530   39.7880   23.3310 S   0  0  0  0  0  0  0  0  0  0  0  0
   33.3400   41.2920   22.8760 C   0  0  0  0  0  0  0  0  0  0  0  0
   38.7970   38.9470   24.6420 C   0  0  0  0  0  0  0  0  0  0  0  0
   38.7580   39.8810   25.6880 N   0  0  0  0  0  0  0  0  0  0  0  0
   34.7460   41.2450   22.8280 N   0  0  0  0  0  0  0  0  0  0  0  0
   37.3910   40.3160   25.8820 C   0  0  0  0  0  0  0  0  0  0  0  0
   36.6440   39.0150   26.2330 C   0  0  0  0  0  0  0  0  0  0  0  0
   35.4650   43.1540   24.7350 C   0  0  0  0  0  0  0  0  0  0  0  0
  1 14  1  0
  1  3  2  0
  2  1  1  0
  2 12  1  0
  4  6  1  0
  5  6  1  0
  6 11  1  0
  7  2  1  0
  7  9  1  0
  9 10  1  0
 10 12  1  0
 11  8  1  0
 11  1  1  0
 12 13  1  0
M  END
$$$$

     RDKit          3D

 11 11  0  0  0  0  0  0  0  0999 V2000
   37.9100   41.5270   25.3340 N   0  0  0  0  0  0  0  0  0  0  0  0
   35.6990   44.0850   25.2740 O   0  0  0  0  0  0  0  0  0  0  0  0
   37.2320   42.0950   24.4550 C   0  0  0  0  0  0  0  0  0  0  0  0
   37.5950   39.2900   22.3980 C   0  0  0  0  0  0  0  0  0  0  0  0
   38.9050   42.4720   22.7230 O   0  0  0  0  0  0  0  0  0  0  0  0
   38.1130   40.0790   25.0210 O   0  0  0  0  0  0  0  0  0  0  0  0
   37.8820   40.1850   23.5690 C   0  0  0  0  0  0  0  0  0  0  0  0
   37.2750   43.8070   23.2830 O   0  0  0  0  0  0  0  0  0  0  0  0
   37.8130   41.6630   23.0620 B   0  0  0  0  0  0  0  0  0  0  0  0
   36.4440   43.3320   24.3570 C   0  0  0  0  0  0  0  0  0  0  0  0
   36.9300   41.4780   22.2030 O   0  0  0  0  0  0  0  0  0  0  0  0
  3  1  2  0
  5  9  1  0
  6  1  1  0
  7  4  1  0
  7  6  1  0
  8 10  2  0
  9  7  1  0
  9  3  1  0
 10  3  1  0
 10  2  1  0
 11  9  1  0
M  END
$$$$

     RDKit          3D

  9  8  0  0  0  0  0  0  0  0999 V2000
   37.6760   41.6030   26.2740 O   0  0  0  0  0  0  0  0  0  0  0  0
   35.2510   42.6940   25.2230 O   0  0  0  0  0  0  0  0  0  0  0  0
   37.7930   39.0630   23.4340 C   0  0  0  0  0  0  0  0  0  0  0  0
   36.2140   41.1200   22.5340 N   0  0  0  0  0  0  0  0  0  0  0  0
   38.0490   40.3910   24.1740 C   0  0  0  0  0  0  0  0  0  0  0  0
   38.1460   40.3410   25.7190 C   0  0  0  0  0  0  0  0  0  0  0  0
   36.8790   41.3770   23.8260 C   0  0  0  0  0  0  0  0  0  0  0  0
   39.4230   40.9240   23.6590 C   0  0  0  0  0  0  0  0  0  0  0  0
   35.7170   41.3830   24.8510 C   0  0  0  0  0  0  0  0  0  0  0  0
  3  5  1  0
  5  6  1  0
  6  1  1  0
  7  4  1  0
  7  5  1  0
  7  9  1  0
  8  5  1  0
  9  2  1  0
M  END
$$$$

     RDKit          3D

 21 22  0  0  0  0  0  0  0  0999 V2000
   35.5450   39.2740   23.7060 C   0  0  0  0  0  0  0  0  0  0  0  0
   36.2400   42.1880   25.7920 N   0  0  0  0  0  0  0  0  0  0  0  0
   37.8900   39.4770   22.5250 O   0  0  0  0  0  0  0  0  0  0  0  0
   32.1780   37.5860   20.5600 C   0  0  0  0  0  0  0  0  0  0  0  0
   34.2800   38.8350   23.5600 C   0  0  0  0  0  0  0  0  0  0  0  0
   33.7670   38.6150   22.2290 C   0  0  0  0  0  0  0  0  0  0  0  0
   35.9000   39.0190   21.1640 N   0  0  0  0  0  0  0  0  0  0  0  0
   38.5110   41.2990   25.4880 C   0  0  0  0  0  0  0  0  0  0  0  0
   39.2070   44.0470   25.8490 O   0  0  0  0  0  0  0  0  0  0  0  0
   34.6490   38.7670   21.1700 C   0  0  0  0  0  0  0  0  0  0  0  0
   37.5810   46.0880   27.4910 O   0  0  0  0  0  0  0  0  0  0  0  0
   36.4940   39.2610   22.4670 C   0  0  0  0  0  0  0  0  0  0  0  0
   37.5240   42.3400   25.5780 C   0  0  0  0  0  0  0  0  0  0  0  0
   37.8080   39.9130   25.2270 C   0  0  0  0  0  0  0  0  0  0  0  0
   37.0830   44.9190   25.3490 C   0  0  0  0  0  0  0  0  0  0  0  0
   36.8570   45.8870   26.4250 O   0  0  0  0  0  0  0  0  0  0  0  0
   35.4510   41.0090   25.5500 C   0  0  0  0  0  0  0  0  0  0  0  0
   38.0100   43.8270   25.6380 C   0  0  0  0  0  0  0  0  0  0  0  0
   32.3320   38.4340   21.8580 C   0  0  0  0  0  0  0  0  0  0  0  0
   36.6240   45.0380   24.1960 O   0  0  0  0  0  0  0  0  0  0  0  0
   36.2170   39.7860   25.1250 C   0  0  0  0  0  0  0  0  0  0  0  0
  1 21  1  0
  4 19  1  0
  5  1  2  0
  6 19  1  0
  6  5  1  0
  7 10  2  0
  7 12  1  0
  8 13  2  0
 10  6  1  0
 12  3  2  0
 12  1  1  0
 13 18  1  0
 13  2  1  0
 14  8  1  0
 15 18  1  0
 15 16  1  0
 16 11  1  0
 17  2  2  0
 18  9  2  0
 20 15  2  0
 21 14  2  0
 21 17  1  0
M  END
$$$$

     RDKit          3D

  5  4  0  0  0  0  0  0  0  0999 V2000
   38.2990   40.4730   24.7640 N   0  0  0  0  0  0  0  0  0  0  0  0
   37.7510   39.1830   25.1280 C   0  0  0  0  0  0  0  0  0  0  0  0
   37.2920   41.4210   24.3220 C   0  0  0  0  0  0  0  0  0  0  0  0
   38.8490   41.0820   25.9700 C   0  0  0  0  0  0  0  0  0  0  0  0
   39.2650   40.2640   23.6710 C   0  0  0  0  0  0  0  0  0  0  0  0
  1  2  1  0
  1  4  1  0
  3  1  1  0
  5  1  1  0
M  END
$$$$

     RDKit          3D

 10 10  0  0  0  0  0  0  0  0999 V2000
   37.3390   41.3110   26.3170 C   0  0  0  0  0  0  0  0  0  0  0  0
   37.0270   42.6140   26.9050 O   0  0  0  0  0  0  0  0  0  0  0  0
   35.4900   41.8240   24.6910 O   0  0  0  0  0  0  0  0  0  0  0  0
   36.4960   41.1830   25.0210 C   0  0  0  0  0  0  0  0  0  0  0  0
   37.2860   40.2490   24.1790 C   0  0  0  0  0  0  0  0  0  0  0  0
   38.6480   40.7450   25.9730 N   0  0  0  0  0  0  0  0  0  0  0  0
   37.2120   39.7280   22.8340 C   0  0  0  0  0  0  0  0  0  0  0  0
   39.3530   39.1170   24.5260 O   0  0  0  0  0  0  0  0  0  0  0  0
   38.6950   40.3470   24.5900 C   0  0  0  0  0  0  0  0  0  0  0  0
   35.9140   39.8220   22.2240 O   0  0  0  0  0  0  0  0  0  0  0  0
  1  2  1  0
  3  4  2  0
  4  1  1  0
  5  7  1  0
  5  9  1  0
  5  4  1  0
  6  1  1  0
  9  8  1  0
  9  6  1  0
 10  7  1  0
M  END
$$$$

     RDKit          3D

 21 24  0  0  0  0  0  0  0  0999 V2000
   40.7110   42.7060   27.3440 O   0  0  0  0  0  0  0  0  0  0  0  0
   38.0090   40.3820   22.6910 C   0  0  0  0  0  0  0  0  0  0  0  0
   37.6700   41.9870   25.0120 C   0  0  0  0  0  0  0  0  0  0  0  0
   35.2170   42.0520   24.9390 C   0  0  0  0  0  0  0  0  0  0  0  0
   36.1460   38.5170   22.7130 O   0  0  0  0  0  0  0  0  0  0  0  0
   40.2390   40.6710   25.0890 C   0  0  0  0  0  0  0  0  0  0  0  0
   39.0880   44.5960   26.8670 O   0  0  0  0  0  0  0  0  0  0  0  0
   39.3660   40.0970   23.5040 C   0  0  0  0  0  0  0  0  0  0  0  0
   36.6730   42.6310   25.5030 N   0  0  0  0  0  0  0  0  0  0  0  0
   37.1880   41.2430   23.8130 C   0  0  0  0  0  0  0  0  0  0  0  0
   39.1790   41.5460   25.9060 C   0  0  0  0  0  0  0  0  0  0  0  0
   35.8350   39.6620   21.7620 P   0  0  0  0  0  0  0  0  0  0  0  0
   34.5080   42.0580   25.1620 C   0  0  0  0  0  0  0  0  0  0  0  0
   38.3570   43.9010   26.8730 C   0  0  0  0  0  0  0  0  0  0  0  0
   38.9980   42.6360   26.9290 C   0  0  0  0  0  0  0  0  0  0  0  0
   37.4920   42.3790   21.2960 O   0  0  0  0  0  0  0  0  0  0  0  0
   34.9100   40.8540   22.7260 O   0  0  0  0  0  0  0  0  0  0  0  0
   37.2020   40.6210   21.0790 C   0  0  0  0  0  0  0  0  0  0  0  0
   37.3590   43.8060   25.7660 C   0  0  0  0  0  0  0  0  0  0  0  0
   35.0420   39.2680   20.6050 O   0  0  0  0  0  0  0  0  0  0  0  0
   35.6090   40.8930   23.9790 C   0  0  0  0  0  0  0  0  0  0  0  0
  2  8  1  0
  2 10  1  0
  3  9  1  0
  3 11  1  0
  4 13  2  0
  4  9  1  0
  6 11  1  0
  7 14  1  0
  8  6  1  0
  9 19  1  0
 10 21  1  0
 10  3  1  0
 11 15  1  0
 12  5  1  0
 12 17  1  0
 14 15  1  0
 15  1  1  0
 17 21  1  0
 18 16  1  0
 18 12  1  0
 18  2  1  0
 19 14  1  0
 20 12  2  0
 21  4  1  0
M  END
$$$$

     RDKit          3D

 11 12  0  0  0  0  0  0  0  0999 V2000
   37.6760   40.8160   25.0220 C   0  0  0  0  0  0  0  0  0  0  0  0
   38.8240   40.0480   22.6370 C   0  0  0  0  0  0  0  0  0  0  0  0
   39.3200   39.3970   23.8200 N   0  0  0  0  0  0  0  0  0  0  0  0
   35.5030   42.5340   24.7660 C   0  0  0  0  0  0  0  0  0  0  0  0
   38.9270   40.0920   25.0790 C   0  0  0  0  0  0  0  0  0  0  0  0
   37.0140   40.9550   23.8290 C   0  0  0  0  0  0  0  0  0  0  0  0
   35.4280   43.1830   25.7960 O   0  0  0  0  0  0  0  0  0  0  0  0
   34.3970   42.3790   22.1470 C   0  0  0  0  0  0  0  0  0  0  0  0
   34.9680   42.3950   23.5010 N   0  0  0  0  0  0  0  0  0  0  0  0
   37.4740   40.6920   22.4470 C   0  0  0  0  0  0  0  0  0  0  0  0
   35.8840   41.6520   23.8820 C   0  0  0  0  0  0  0  0  0  0  0  0
  1  5  1  0
  2  3  1  0
  3  5  1  0
  4  7  2  0
  6  1  2  0
  8  9  1  0
  9 11  1  0
  9  4  1  0
 10  2  1  0
 10  6  1  0
 11  6  1  0
 11  4  1  0
M  END
$$$$

     RDKit          3D

 10 11  0  0  0  0  0  0  0  0999 V2000
   38.3360   40.6500   25.0720 N   0  0  0  0  0  0  0  0  0  0  0  0
   35.8520   41.2160   22.3800 N   0  0  0  0  0  0  0  0  0  0  0  0
   36.9680   40.8310   23.1400 C   0  0  0  0  0  0  0  0  0  0  0  0
   35.3420   42.4550   22.6390 C   0  0  0  0  0  0  0  0  0  0  0  0
   35.3120   42.7510   23.9620 N   0  0  0  0  0  0  0  0  0  0  0  0
   38.1180   39.7190   22.7310 S   0  0  0  0  0  0  0  0  0  0  0  0
   39.0320   39.7870   24.2270 C   0  0  0  0  0  0  0  0  0  0  0  0
   36.2910   42.7550   25.9600 O   0  0  0  0  0  0  0  0  0  0  0  0
   36.1560   42.2490   24.8490 C   0  0  0  0  0  0  0  0  0  0  0  0
   37.1830   41.2260   24.5060 C   0  0  0  0  0  0  0  0  0  0  0  0
  2  4  1  0
  2  3  1  0
  3 10  2  0
  4  5  1  0
  5  9  1  0
  6  3  1  0
  6  7  1  0
  7  1  2  0
  9  8  2  0
 10  9  1  0
 10  1  1  0
M  END
$$$$

     RDKit          3D

 10  9  0  0  0  0  0  0  0  0999 V2000
   39.4790   41.3630   24.8420 O   0  0  0  0  0  0  0  0  0  0  0  0
   38.1270   40.9420   25.0370 C   0  0  0  0  0  0  0  0  0  0  0  0
   36.4820   42.2340   26.2440 O   0  0  0  0  0  0  0  0  0  0  0  0
   37.0920   41.3980   24.0150 C   0  0  0  0  0  0  0  0  0  0  0  0
   35.9530   44.6510   25.6560 C   0  0  0  0  0  0  0  0  0  0  0  0
   38.4140   38.8220   26.4160 O   0  0  0  0  0  0  0  0  0  0  0  0
   37.5320   40.5220   22.8750 O   0  0  0  0  0  0  0  0  0  0  0  0
   36.6010   42.5240   24.9960 C   0  0  0  0  0  0  0  0  0  0  0  0
   36.1810   43.7660   24.4150 O   0  0  0  0  0  0  0  0  0  0  0  0
   37.9840   39.3330   25.1000 C   0  0  0  0  0  0  0  0  0  0  0  0
  2  1  1  0
  2 10  1  0
  4  7  1  0
  4  8  1  0
  4  2  1  0
  8  3  2  0
  9  8  1  0
  9  5  1  0
 10  6  1  0
M  END
$$$$

     RDKit          3D

 12 12  0  0  0  0  0  0  0  0999 V2000
   37.0960   40.9400   25.0700 C   0  0  0  0  0  0  0  0  0  0  0  0
   35.7210   39.5730   21.4330 C   0  0  0  0  0  0  0  0  0  0  0  0
   36.7360   39.8950   22.6370 C   0  0  0  0  0  0  0  0  0  0  0  0
   38.6330   41.1280   22.2530 O   0  0  0  0  0  0  0  0  0  0  0  0
   35.7220   43.6440   25.4200 O   0  0  0  0  0  0  0  0  0  0  0  0
   39.5490   40.5360   24.9420 O   0  0  0  0  0  0  0  0  0  0  0  0
   36.4210   41.7840   24.0510 C   0  0  0  0  0  0  0  0  0  0  0  0
   37.4950   41.5740   26.2320 O   0  0  0  0  0  0  0  0  0  0  0  0
   38.1810   39.9920   22.9010 C   0  0  0  0  0  0  0  0  0  0  0  0
   36.0290   43.1270   24.4840 C   0  0  0  0  0  0  0  0  0  0  0  0
   36.1700   41.2110   22.8130 O   0  0  0  0  0  0  0  0  0  0  0  0
   38.2660   40.0800   24.4700 C   0  0  0  0  0  0  0  0  0  0  0  0
  1  8  1  0
  3  2  1  0
  3 11  1  0
  3  9  1  0
  7 10  1  0
  7  1  1  0
  9  4  1  0
  9 12  1  0
 10  5  2  0
 11  7  1  0
 12  6  1  0
 12  1  1  0
M  END
$$$$

     RDKit          3D

 17 18  0  0  0  0  0  0  0  0999 V2000
   33.2560   41.3330   23.0560 C   0  0  0  0  0  0  0  0  0  0  0  0
   33.0330   43.5540   22.0740 C   0  0  0  0  0  0  0  0  0  0  0  0
   39.5390   41.2460   22.0730 N   0  0  0  0  0  0  0  0  0  0  0  0
   32.2190   40.6430   23.4900 C   0  0  0  0  0  0  0  0  0  0  0  0
   37.8830   41.8020   24.0560 C   0  0  0  0  0  0  0  0  0  0  0  0
   32.9610   42.1270   21.9390 C   0  0  0  0  0  0  0  0  0  0  0  0
   38.7360   40.2100   25.6080 N   0  0  0  0  0  0  0  0  0  0  0  0
   34.9970   42.3930   22.1890 C   0  0  0  0  0  0  0  0  0  0  0  0
   35.5900   42.1710   23.1500 C   0  0  0  0  0  0  0  0  0  0  0  0
   34.5290   41.3000   23.6660 C   0  0  0  0  0  0  0  0  0  0  0  0
   34.5050   43.7850   21.9760 C   0  0  0  0  0  0  0  0  0  0  0  0
   36.4120   41.0780   25.5980 C   0  0  0  0  0  0  0  0  0  0  0  0
   32.4230   41.2660   20.7540 O   0  0  0  0  0  0  0  0  0  0  0  0
   39.0170   41.0850   23.4490 C   0  0  0  0  0  0  0  0  0  0  0  0
   39.3640   39.9120   24.3180 C   0  0  0  0  0  0  0  0  0  0  0  0
   36.8790   42.4280   23.5930 O   0  0  0  0  0  0  0  0  0  0  0  0
   37.9160   41.4400   25.5700 C   0  0  0  0  0  0  0  0  0  0  0  0
  1  4  2  0
  1 10  1  0
  5 16  1  0
  5 17  1  0
  6 13  1  0
  6  2  1  0
  6  1  1  0
  8  9  1  0
  9 16  1  0
  9 10  2  0
 11  2  1  0
 11  8  1  0
 14  3  1  0
 14  5  1  0
 14 15  1  0
 15  7  1  0
 17 12  1  0
 17  7  1  0
M  END
$$$$

     RDKit          3D

 25 27  0  0  0  0  0  0  0  0999 V2000
   41.5530   38.1830   33.5800 C   0  0  0  0  0  0  0  0  0  0  0  0
   37.1890   38.4720   26.5710 C   0  0  0  0  0  0  0  0  0  0  0  0
   40.7680   35.2030   34.0730 C   0  0  0  0  0  0  0  0  0  0  0  0
   35.2660   40.6440   22.9960 C   0  0  0  0  0  0  0  0  0  0  0  0
   37.0660   40.7220   27.3550 C   0  0  0  0  0  0  0  0  0  0  0  0
   34.8240   40.6380   24.2990 C   0  0  0  0  0  0  0  0  0  0  0  0
   34.9770   39.5680   20.8460 C   0  0  0  0  0  0  0  0  0  0  0  0
   40.7960   41.8170   33.5440 C   0  0  0  0  0  0  0  0  0  0  0  0
   41.1420   39.6750   35.3490 O   0  0  0  0  0  0  0  0  0  0  0  0
   38.1390   39.1800   28.8090 N   0  0  0  0  0  0  0  0  0  0  0  0
   37.4630   39.5120   27.5740 C   0  0  0  0  0  0  0  0  0  0  0  0
   40.3780   41.8630   32.0420 C   0  0  0  0  0  0  0  0  0  0  0  0
   35.7620   40.0380   25.3880 C   0  0  0  0  0  0  0  0  0  0  0  0
   36.0640   40.4220   20.2910 C   0  0  0  0  0  0  0  0  0  0  0  0
   36.2060   41.0510   26.3580 C   0  0  0  0  0  0  0  0  0  0  0  0
   36.9080   41.3050   21.2490 C   0  0  0  0  0  0  0  0  0  0  0  0
   34.5370   39.7980   22.1040 C   0  0  0  0  0  0  0  0  0  0  0  0
   38.4250   39.8210   29.8000 C   0  0  0  0  0  0  0  0  0  0  0  0
   38.9650   40.3400   31.0160 C   0  0  0  0  0  0  0  0  0  0  0  0
   40.8460   36.8060   34.7150 S   0  0  0  0  0  0  0  0  0  0  0  0
   40.2510   40.3990   33.4370 N   0  0  0  0  0  0  0  0  0  0  0  0
   36.4220   41.2680   22.5600 C   0  0  0  0  0  0  0  0  0  0  0  0
   40.9530   39.4150   34.1600 C   0  0  0  0  0  0  0  0  0  0  0  0
   39.8670   40.2760   32.0250 C   0  0  0  0  0  0  0  0  0  0  0  0
   36.4050   38.9950   25.3450 C   0  0  0  0  0  0  0  0  0  0  0  0
  1 23  1  0
  1 20  1  0
  2 11  1  0
  3 20  1  0
  4  6  1  0
  5 11  2  0
  7 17  1  0
 10 18  1  0
 11 10  1  0
 12  8  1  0
 13  6  1  0
 13 15  1  0
 14  7  2  0
 14 16  1  0
 15  5  1  0
 16 22  2  0
 17  4  2  0
 18 19  1  0
 21  8  1  0
 21 23  1  0
 22  4  1  0
 23  9  2  0
 24 19  1  0
 24 12  1  0
 24 21  1  0
 25 13  1  0
 25  2  1  0
M  END
$$$$

     RDKit          3D

  8  8  0  0  0  0  0  0  0  0999 V2000
   36.0840   42.6860   24.5720 C   0  0  0  0  0  0  0  0  0  0  0  0
   37.6270   44.0370   24.8960 S   0  0  0  0  0  0  0  0  0  0  0  0
   37.6200   41.1510   23.3590 C   0  0  0  0  0  0  0  0  0  0  0  0
   38.5160   40.1040   23.3610 C   0  0  0  0  0  0  0  0  0  0  0  0
   37.0360   40.7090   25.6160 N   0  0  0  0  0  0  0  0  0  0  0  0
   37.8740   39.6790   25.6070 C   0  0  0  0  0  0  0  0  0  0  0  0
   36.9440   41.4580   24.5110 C   0  0  0  0  0  0  0  0  0  0  0  0
   38.6280   39.3440   24.4980 C   0  0  0  0  0  0  0  0  0  0  0  0
  1  2  1  0
  3  4  2  0
  3  7  1  0
  4  8  1  0
  6  5  1  0
  7  1  1  0
  7  5  2  0
  8  6  2  0
M  END
$$$$

     RDKit          3D

 21 22  0  0  0  0  0  0  0  0999 V2000
   35.7840   39.2430   23.2990 C   0  0  0  0  0  0  0  0  0  0  0  0
   38.7200   44.5070   26.4370 C   0  0  0  0  0  0  0  0  0  0  0  0
   33.5770   41.8050   24.6970 O   0  0  0  0  0  0  0  0  0  0  0  0
   32.2130   37.2300   22.8540 Cl  0  0  0  0  0  0  0  0  0  0  0  0
   37.6010   39.0950   23.0110 Br  0  0  0  0  0  0  0  0  0  0  0  0
   35.7120   42.6870   24.7990 O   0  0  0  0  0  0  0  0  0  0  0  0
   33.9510   40.6870   24.2190 C   0  0  0  0  0  0  0  0  0  0  0  0
   33.4540   38.4610   23.2460 C   0  0  0  0  0  0  0  0  0  0  0  0
   40.5240   41.5700   23.9490 C   0  0  0  0  0  0  0  0  0  0  0  0
   37.7760   41.5910   24.3570 C   0  0  0  0  0  0  0  0  0  0  0  0
   40.2410   40.7020   21.2360 I   0  0  0  0  0  0  0  0  0  0  0  0
   37.8920   43.7420   25.6580 O   0  0  0  0  0  0  0  0  0  0  0  0
   35.4040   40.4380   24.0420 C   0  0  0  0  0  0  0  0  0  0  0  0
   39.6640   40.7990   23.1430 C   0  0  0  0  0  0  0  0  0  0  0  0
   38.3800   40.5800   23.5700 C   0  0  0  0  0  0  0  0  0  0  0  0
   40.1360   42.5810   24.9500 O   0  0  0  0  0  0  0  0  0  0  0  0
   41.7620   41.3960   23.7550 O   0  0  0  0  0  0  0  0  0  0  0  0
   33.0310   39.6850   23.8170 C   0  0  0  0  0  0  0  0  0  0  0  0
   38.5570   42.6240   25.0010 C   0  0  0  0  0  0  0  0  0  0  0  0
   34.8210   38.2660   22.9440 C   0  0  0  0  0  0  0  0  0  0  0  0
   36.2880   41.6660   24.4580 C   0  0  0  0  0  0  0  0  0  0  0  0
  1 13  1  0
  4  8  1  0
  7  3  2  0
  8 18  2  0
  9 16  1  0
 10 21  1  0
 10 19  2  0
 12  2  1  0
 13  7  1  0
 13 21  1  0
 14 11  1  0
 14 15  1  0
 14  9  1  0
 15  5  1  0
 15 10  1  0
 16 19  1  0
 17  9  2  0
 18  7  1  0
 19 12  1  0
 20  8  1  0
 20  1  2  0
 21  6  2  0
M  END
$$$$

     RDKit          3D

 12 13  0  0  0  0  0  0  0  0999 V2000
   32.0030   39.5640   22.3120 C   0  0  0  0  0  0  0  0  0  0  0  0
   37.2000   39.2080   24.7510 C   0  0  0  0  0  0  0  0  0  0  0  0
   35.0820   39.4590   24.7930 C   0  0  0  0  0  0  0  0  0  0  0  0
   36.9480   40.7090   24.9510 C   0  0  0  0  0  0  0  0  0  0  0  0
   36.1270   38.5870   24.2490 O   0  0  0  0  0  0  0  0  0  0  0  0
   33.2570   40.6090   23.4680 C   0  0  0  0  0  0  0  0  0  0  0  0
   34.1210   39.6100   23.7750 C   0  0  0  0  0  0  0  0  0  0  0  0
   32.5950   40.7460   22.1770 C   0  0  0  0  0  0  0  0  0  0  0  0
   32.6700   38.3390   22.3400 C   0  0  0  0  0  0  0  0  0  0  0  0
   37.8170   38.3200   25.8050 C   0  0  0  0  0  0  0  0  0  0  0  0
   33.6820   38.3700   23.2170 C   0  0  0  0  0  0  0  0  0  0  0  0
   35.4850   40.9260   25.1600 C   0  0  0  0  0  0  0  0  0  0  0  0
  1  9  1  0
  2  4  1  0
  2 10  1  0
  3  7  1  0
  3 12  1  0
  4 12  1  0
  5  2  1  0
  5  3  1  0
  6  7  1  0
  8  1  1  0
  8  6  1  0
  9 11  1  0
 11  7  2  0
M  END
$$$$

     RDKit          3D

  9  8  0  0  0  0  0  0  0  0999 V2000
   36.2800   40.6160   25.0540 C   0  0  0  0  0  0  0  0  0  0  0  0
   37.4550   38.2430   24.3130 N   0  0  0  0  0  0  0  0  0  0  0  0
   38.4730   41.5900   25.1070 O   0  0  0  0  0  0  0  0  0  0  0  0
   38.3320   39.4120   24.2160 C   0  0  0  0  0  0  0  0  0  0  0  0
   35.6470   40.6620   22.5810 N   0  0  0  0  0  0  0  0  0  0  0  0
   36.1470   41.4350   23.7470 C   0  0  0  0  0  0  0  0  0  0  0  0
   35.2800   42.6880   24.0330 C   0  0  0  0  0  0  0  0  0  0  0  0
   37.7510   40.3290   25.2510 C   0  0  0  0  0  0  0  0  0  0  0  0
   34.3650   42.2920   25.0940 O   0  0  0  0  0  0  0  0  0  0  0  0
  1  8  1  0
  4  2  1  0
  4  8  1  0
  6  5  1  0
  6  7  1  0
  6  1  1  0
  7  9  1  0
  8  3  1  0
M  END
$$$$

     RDKit          3D

  8  7  0  0  0  0  0  0  0  0999 V2000
   38.6530   41.9260   23.8870 C   0  0  0  0  0  0  0  0  0  0  0  0
   38.7480   40.3880   24.2840 C   0  0  0  0  0  0  0  0  0  0  0  0
   37.7480   42.7080   24.5440 C   0  0  0  0  0  0  0  0  0  0  0  0
   35.5250   43.1980   23.3250 C   0  0  0  0  0  0  0  0  0  0  0  0
   38.2590   42.8590   25.9350 C   0  0  0  0  0  0  0  0  0  0  0  0
   36.1470   42.6300   24.5620 C   0  0  0  0  0  0  0  0  0  0  0  0
   39.7610   40.1210   25.2130 O   0  0  0  0  0  0  0  0  0  0  0  0
   35.6960   43.4930   25.6110 O   0  0  0  0  0  0  0  0  0  0  0  0
  1  2  1  0
  1  3  1  0
  2  7  1  0
  3  6  1  0
  3  5  1  0
  6  4  1  0
  6  8  1  0
M  END
$$$$

     RDKit          3D

  9  8  0  0  0  0  0  0  0  0999 V2000
   38.5500   40.4400   22.7500 N   0  0  0  0  0  0  0  0  0  0  0  0
   36.9540   40.4760   24.5790 C   0  0  0  0  0  0  0  0  0  0  0  0
   39.0400   39.6770   24.8460 N   0  0  0  0  0  0  0  0  0  0  0  0
   36.0030   42.7960   25.5890 O   0  0  0  0  0  0  0  0  0  0  0  0
   37.9990   39.7040   23.8670 C   0  0  0  0  0  0  0  0  0  0  0  0
   39.7320   40.9250   25.0650 C   0  0  0  0  0  0  0  0  0  0  0  0
   35.4040   42.4060   24.3210 C   0  0  0  0  0  0  0  0  0  0  0  0
   36.1390   41.3210   23.6580 C   0  0  0  0  0  0  0  0  0  0  0  0
   34.4680   42.9740   23.7160 O   0  0  0  0  0  0  0  0  0  0  0  0
  3  6  1  0
  5  1  1  0
  5  2  1  0
  5  3  1  0
  7  4  1  0
  8  7  1  0
  8  2  1  0
  9  7  2  0
M  END
$$$$
