
     RDKit          3D

 10  9  0  0  0  0  0  0  0  0999 V2000
   40.4240   39.5930   28.6590 C   0  0  0  0  0  0  0  0  0  0  0  0
   40.5340   39.6970   29.9470 O   0  0  0  0  0  0  0  0  0  0  0  0
   42.3500   41.0830   28.3420 C   0  0  0  0  0  0  0  0  0  0  0  0
   40.9480   41.0200   26.3890 C   0  0  0  0  0  0  0  0  0  0  0  0
   40.9830   40.8050   27.9280 C   0  0  0  0  0  0  0  0  0  0  0  0
   42.4450   42.3390   28.9250 O   0  0  0  0  0  0  0  0  0  0  0  0
   39.6110   43.1170   26.9700 O   0  0  0  0  0  0  0  0  0  0  0  0
   39.6480   41.2610   25.7980 N   0  0  0  0  0  0  0  0  0  0  0  0
   38.4880   43.3040   25.3750 O   0  0  0  0  0  0  0  0  0  0  0  0
   38.9690   42.3720   26.2600 C   0  0  0  0  0  0  0  0  0  0  0  0
  1  2  1  0
  3  6  1  0
  4  5  1  0
  5  3  1  0
  5  1  1  0
  8 10  1  0
  8  4  1  0
  9 10  1  0
 10  7  1  0
M  END
$$$$

     RDKit          3D

 29 31  0  0  0  0  0  0  0  0999 V2000
   36.1350   43.3010   25.1420 S   0  0  0  0  0  0  0  0  0  0  0  0
   31.0560   38.6510   26.2060 C   0  0  0  0  0  0  0  0  0  0  0  0
   38.9750   40.9490   26.1380 C   0  0  0  0  0  0  0  0  0  0  0  0
   37.5770   40.5740   25.6480 C   0  0  0  0  0  0  0  0  0  0  0  0
   38.1770   37.7010   29.9250 C   0  0  0  0  0  0  0  0  0  0  0  0
   33.7460   43.0950   23.9110 O   0  0  0  0  0  0  0  0  0  0  0  0
   32.3960   40.7800   26.1550 C   0  0  0  0  0  0  0  0  0  0  0  0
   26.8480   36.1220   31.2050 C   0  0  0  0  0  0  0  0  0  0  0  0
   40.0450   40.6230   29.1440 O   0  0  0  0  0  0  0  0  0  0  0  0
   38.6140   38.3830   28.7060 C   0  0  0  0  0  0  0  0  0  0  0  0
   40.8360   39.1990   27.7670 N   0  0  0  0  0  0  0  0  0  0  0  0
   33.4090   40.6960   25.6150 C   0  0  0  0  0  0  0  0  0  0  0  0
   29.0130   37.2520   30.6730 C   0  0  0  0  0  0  0  0  0  0  0  0
   34.3870   42.8150   25.2080 C   0  0  0  0  0  0  0  0  0  0  0  0
   39.8090   38.0980   29.5730 C   0  0  0  0  0  0  0  0  0  0  0  0
   35.5480   41.4960   26.6670 O   0  0  0  0  0  0  0  0  0  0  0  0
   39.3030   43.2700   26.3040 N   0  0  0  0  0  0  0  0  0  0  0  0
   29.4960   37.5090   27.8530 C   0  0  0  0  0  0  0  0  0  0  0  0
   28.7940   35.9510   29.9080 C   0  0  0  0  0  0  0  0  0  0  0  0
   36.8450   41.8590   25.9940 C   0  0  0  0  0  0  0  0  0  0  0  0
   28.9490   36.2190   28.3530 C   0  0  0  0  0  0  0  0  0  0  0  0
   40.1420   39.4520   28.8760 C   0  0  0  0  0  0  0  0  0  0  0  0
   27.8850   35.1290   30.9410 C   0  0  0  0  0  0  0  0  0  0  0  0
   40.2210   39.9410   26.5230 C   0  0  0  0  0  0  0  0  0  0  0  0
   30.0790   37.6200   26.5860 C   0  0  0  0  0  0  0  0  0  0  0  0
   34.6550   41.3270   25.3870 C   0  0  0  0  0  0  0  0  0  0  0  0
   39.3130   42.1550   25.3900 N   0  0  0  0  0  0  0  0  0  0  0  0
   30.4170   40.4890   27.1360 O   0  0  0  0  0  0  0  0  0  0  0  0
   31.2110   39.9320   26.4220 C   0  0  0  0  0  0  0  0  0  0  0  0
  1 14  1  0
  1 20  1  0
  2 29  1  0
  2 25  1  0
  3  4  1  0
  3 24  1  0
  7 29  1  0
 10 22  1  0
 10 15  1  0
 10  5  1  0
 11 22  1  0
 12  7  2  3
 14  6  1  0
 14 26  1  0
 15  5  1  0
 18 21  1  0
 19 13  1  0
 19 23  1  0
 20  4  1  0
 20 16  1  0
 21 19  1  0
 22  9  1  0
 22 15  1  0
 23  8  1  0
 24 11  1  0
 25 18  1  0
 26 12  1  0
 26 16  1  0
 27  3  1  0
 27 17  1  0
 29 28  2  0
M  END
$$$$

     RDKit          3D

 15 16  0  0  0  0  0  0  0  0999 V2000
   37.9220   39.8470   27.5430 C   0  0  0  0  0  0  0  0  0  0  0  0
   34.6700   40.8790   24.2880 O   0  0  0  0  0  0  0  0  0  0  0  0
   34.1130   40.7170   25.5940 C   0  0  0  0  0  0  0  0  0  0  0  0
   37.5050   39.2470   25.1970 C   0  0  0  0  0  0  0  0  0  0  0  0
   36.4120   39.7230   23.2680 C   0  0  0  0  0  0  0  0  0  0  0  0
   36.3660   42.1180   25.9560 C   0  0  0  0  0  0  0  0  0  0  0  0
   38.2300   38.9520   26.3590 N   0  0  0  0  0  0  0  0  0  0  0  0
   36.7610   39.2530   22.4140 O   0  0  0  0  0  0  0  0  0  0  0  0
   39.6870   38.8080   28.8480 N   0  0  0  0  0  0  0  0  0  0  0  0
   37.2570   41.0670   26.7800 C   0  0  0  0  0  0  0  0  0  0  0  0
   36.1380   40.6620   24.2280 C   0  0  0  0  0  0  0  0  0  0  0  0
   38.3800   39.9630   24.4230 O   0  0  0  0  0  0  0  0  0  0  0  0
   39.8650   41.0290   28.4860 O   0  0  0  0  0  0  0  0  0  0  0  0
   36.6610   40.3070   25.6570 C   0  0  0  0  0  0  0  0  0  0  0  0
   39.2580   39.9890   28.3320 C   0  0  0  0  0  0  0  0  0  0  0  0
  1 15  1  0
  2  3  1  0
  4 12  1  0
  4 14  1  0
  4  7  1  0
  7  1  1  0
  8  5  1  0
 10  6  1  0
 10  1  1  0
 11  5  1  0
 11  2  1  0
 14 11  1  0
 14  6  1  0
 14 10  1  0
 15 13  2  0
 15  9  1  0
M  END
$$$$

     RDKit          3D

  8  8  0  0  0  0  0  0  0  0999 V2000
   36.9800   41.2030   25.2300 C   0  0  0  0  0  0  0  0  0  0  0  0
   38.2280   39.6770   26.2760 C   0  0  0  0  0  0  0  0  0  0  0  0
   38.8040   41.6770   23.7860 C   0  0  0  0  0  0  0  0  0  0  0  0
   37.9000   38.5780   26.6910 O   0  0  0  0  0  0  0  0  0  0  0  0
   36.0240   40.2120   25.4730 O   0  0  0  0  0  0  0  0  0  0  0  0
   38.2410   41.0630   26.1190 C   0  0  0  0  0  0  0  0  0  0  0  0
   37.3570   41.8260   23.9150 C   0  0  0  0  0  0  0  0  0  0  0  0
   39.3710   41.2000   25.3010 O   0  0  0  0  0  0  0  0  0  0  0  0
  1  5  1  0
  1  6  1  0
  2  4  1  0
  3  7  1  0
  3  8  1  0
  6  2  1  0
  7  1  1  0
  8  6  1  0
M  END
$$$$

     RDKit          3D

  8  8  0  0  0  0  0  0  0  0999 V2000
   35.3730   40.0370   24.9550 C   0  0  0  0  0  0  0  0  0  0  0  0
   38.2210   37.9570   25.4520 O   0  0  0  0  0  0  0  0  0  0  0  0
   36.2730   38.9770   24.8060 C   0  0  0  0  0  0  0  0  0  0  0  0
   37.6440   39.8350   26.5790 C   0  0  0  0  0  0  0  0  0  0  0  0
   37.4310   38.9080   25.5860 C   0  0  0  0  0  0  0  0  0  0  0  0
   35.7220   40.9840   25.8270 C   0  0  0  0  0  0  0  0  0  0  0  0
   36.7980   40.8990   26.6650 C   0  0  0  0  0  0  0  0  0  0  0  0
   34.4590   42.4060   25.9160 Br  0  0  0  0  0  0  0  0  0  0  0  0
  1  6  2  0
  2  5  2  0
  3  1  1  0
  3  5  1  0
  4  7  2  0
  5  4  1  0
  6  8  1  0
  6  7  1  0
M  END
$$$$

     RDKit          3D

 13 13  0  0  0  0  0  0  0  0999 V2000
   37.9920   41.8920   27.0240 O   0  0  0  0  0  0  0  0  0  0  0  0
   40.1640   40.0020   27.3570 C   0  0  0  0  0  0  0  0  0  0  0  0
   33.9740   42.7040   25.9480 O   0  0  0  0  0  0  0  0  0  0  0  0
   36.3070   42.6770   24.6500 C   0  0  0  0  0  0  0  0  0  0  0  0
   37.5750   39.6330   27.5880 C   0  0  0  0  0  0  0  0  0  0  0  0
   37.6130   38.9650   26.1850 C   0  0  0  0  0  0  0  0  0  0  0  0
   36.0190   40.7850   26.1230 C   0  0  0  0  0  0  0  0  0  0  0  0
   36.9480   39.9050   25.2790 O   0  0  0  0  0  0  0  0  0  0  0  0
   39.2790   38.4240   28.9000 O   0  0  0  0  0  0  0  0  0  0  0  0
   35.7590   42.7480   23.2270 C   0  0  0  0  0  0  0  0  0  0  0  0
   38.9700   39.7080   28.2800 C   0  0  0  0  0  0  0  0  0  0  0  0
   35.2490   42.0570   25.5930 C   0  0  0  0  0  0  0  0  0  0  0  0
   36.9370   41.0270   27.3280 C   0  0  0  0  0  0  0  0  0  0  0  0
  4 12  1  0
  5 11  1  0
  6  5  1  0
  7 12  1  0
  7 13  1  0
  8  7  1  0
  8  6  1  0
 10  4  1  0
 11  2  1  0
 11  9  1  0
 12  3  1  0
 13  1  1  0
 13  5  1  0
M  END
$$$$

     RDKit          3D

  8  8  0  0  0  0  0  0  0  0999 V2000
   29.5970   34.4640   35.7310 O   0  0  0  0  0  0  0  0  0  0  0  0
   32.3910   37.1530   33.4150 C   0  0  0  0  0  0  0  0  0  0  0  0
   30.1870   36.6000   32.7050 C   0  0  0  0  0  0  0  0  0  0  0  0
   30.9610   35.9600   35.0720 C   0  0  0  0  0  0  0  0  0  0  0  0
   31.2910   37.3670   32.4700 C   0  0  0  0  0  0  0  0  0  0  0  0
   29.9990   36.0210   34.0030 C   0  0  0  0  0  0  0  0  0  0  0  0
   32.1420   36.4960   34.6480 C   0  0  0  0  0  0  0  0  0  0  0  0
   30.6270   35.5330   36.4500 C   0  0  0  0  0  0  0  0  0  0  0  0
  1  8  1  0
  2  7  1  0
  3  6  2  0
  4  8  1  0
  5  3  1  0
  5  2  2  0
  6  4  1  0
  7  4  2  0
M  END
$$$$

     RDKit          3D

 14 14  0  0  0  0  0  0  0  0999 V2000
   37.0530   40.6780   27.6120 C   0  0  0  0  0  0  0  0  0  0  0  0
   37.0650   39.4380   24.3740 S   0  0  0  0  0  0  0  0  0  0  0  0
   35.4570   40.1110   23.7740 C   0  0  0  0  0  0  0  0  0  0  0  0
   40.0020   39.9250   26.3720 O   0  0  0  0  0  0  0  0  0  0  0  0
   39.3440   39.7780   27.4020 C   0  0  0  0  0  0  0  0  0  0  0  0
   35.1510   41.4400   24.4530 C   0  0  0  0  0  0  0  0  0  0  0  0
   36.7250   41.3280   26.3520 C   0  0  0  0  0  0  0  0  0  0  0  0
   38.0000   39.3540   23.0430 N   0  0  0  0  0  0  0  0  0  0  0  0
   40.1280   40.3370   29.8060 O   0  0  0  0  0  0  0  0  0  0  0  0
   36.7640   38.0170   24.9440 O   0  0  0  0  0  0  0  0  0  0  0  0
   39.8420   39.2980   28.8540 C   0  0  0  0  0  0  0  0  0  0  0  0
   35.3450   41.1160   25.9840 C   0  0  0  0  0  0  0  0  0  0  0  0
   37.9870   40.1930   27.6070 C   0  0  0  0  0  0  0  0  0  0  0  0
   37.8970   40.3490   25.2570 N   0  0  0  0  0  0  0  0  0  0  0  0
  2  8  1  0
  2 10  1  0
  2 14  1  0
  3  2  1  0
  3  6  1  0
  4  5  2  0
  5 13  1  0
  5 11  1  0
  6 12  1  0
  7  1  1  0
 11  9  1  0
 12  7  1  0
 13  1  1  0
 14  7  1  0
M  END
$$$$

     RDKit          3D

 15 15  0  0  0  0  0  0  0  0999 V2000
   38.3100   40.9240   27.3670 C   0  0  0  0  0  0  0  0  0  0  0  0
   39.1040   40.6500   29.4880 O   0  0  0  0  0  0  0  0  0  0  0  0
   38.7850   43.6690   26.0670 C   0  0  0  0  0  0  0  0  0  0  0  0
   38.4250   41.1020   24.8820 N   0  0  0  0  0  0  0  0  0  0  0  0
   40.8320   40.8140   26.9590 C   0  0  0  0  0  0  0  0  0  0  0  0
   38.9760   39.5140   28.9920 C   0  0  0  0  0  0  0  0  0  0  0  0
   38.7840   37.0420   29.4640 C   0  0  0  0  0  0  0  0  0  0  0  0
   39.4710   41.4020   26.6470 N   0  0  0  0  0  0  0  0  0  0  0  0
   40.3550   42.5730   24.5120 C   0  0  0  0  0  0  0  0  0  0  0  0
   36.8610   41.1250   26.7880 C   0  0  0  0  0  0  0  0  0  0  0  0
   38.3550   39.4140   27.6440 C   0  0  0  0  0  0  0  0  0  0  0  0
   38.9980   39.8570   24.4400 C   0  0  0  0  0  0  0  0  0  0  0  0
   39.5520   38.3360   29.6940 C   0  0  0  0  0  0  0  0  0  0  0  0
   39.1560   42.2490   25.4460 C   0  0  0  0  0  0  0  0  0  0  0  0
   36.8890   41.1000   25.2540 C   0  0  0  0  0  0  0  0  0  0  0  0
  1 11  1  0
  4 15  1  0
  4 14  1  0
  6  2  2  0
  6 13  1  0
  7 13  1  0
  8  5  1  0
  8  1  1  0
  9 14  1  0
 10  1  1  0
 11  6  1  0
 12  4  1  0
 14  3  1  0
 14  8  1  0
 15 10  1  0
M  END
$$$$

     RDKit          3D

 13 13  0  0  0  0  0  0  0  0999 V2000
   38.2370   41.6530   26.7300 O   0  0  0  0  0  0  0  0  0  0  0  0
   38.4290   40.8960   24.2830 C   0  0  0  0  0  0  0  0  0  0  0  0
   38.4690   37.6970   28.7030 O   0  0  0  0  0  0  0  0  0  0  0  0
   38.1790   41.9810   25.1920 C   0  0  0  0  0  0  0  0  0  0  0  0
   37.3220   43.2060   25.0060 C   0  0  0  0  0  0  0  0  0  0  0  0
   38.5450   39.9700   28.5510 C   0  0  0  0  0  0  0  0  0  0  0  0
   36.7930   39.8670   26.7570 O   0  0  0  0  0  0  0  0  0  0  0  0
   39.3950   40.3180   23.4460 C   0  0  0  0  0  0  0  0  0  0  0  0
   37.0610   40.9010   24.2590 C   0  0  0  0  0  0  0  0  0  0  0  0
   39.4200   38.7370   28.8780 C   0  0  0  0  0  0  0  0  0  0  0  0
   38.1440   40.1760   27.0130 C   0  0  0  0  0  0  0  0  0  0  0  0
   39.1120   39.3700   26.0960 C   0  0  0  0  0  0  0  0  0  0  0  0
   36.4620   41.7140   23.2970 O   0  0  0  0  0  0  0  0  0  0  0  0
  1 11  1  0
  2  8  1  0
  2  4  1  0
  3 10  1  0
  4  5  1  0
  4  1  1  0
  6 10  1  0
  7 11  1  0
  9 13  1  0
  9  2  1  0
  9  4  1  0
 11 12  1  0
 11  6  1  0
M  END
$$$$

     RDKit          3D

  7  6  0  0  0  0  0  0  0  0999 V2000
   37.9400   40.9970   26.3350 C   0  0  0  0  0  0  0  0  0  0  0  0
   38.1650   38.5620   26.3260 O   0  0  0  0  0  0  0  0  0  0  0  0
   38.8900   41.0290   25.5430 O   0  0  0  0  0  0  0  0  0  0  0  0
   39.1720   38.5950   29.0830 C   0  0  0  0  0  0  0  0  0  0  0  0
   38.7870   39.8530   28.3140 C   0  0  0  0  0  0  0  0  0  0  0  0
   37.2770   42.0510   26.5930 O   0  0  0  0  0  0  0  0  0  0  0  0
   37.8420   39.7250   27.1350 C   0  0  0  0  0  0  0  0  0  0  0  0
  1  6  1  0
  1  7  1  0
  3  1  2  0
  5  4  1  0
  7  2  1  0
  7  5  1  0
M  END
$$$$

     RDKit          3D

 22 24  0  0  0  0  0  0  0  0999 V2000
   37.1740   40.2430   25.2380 C   0  0  0  0  0  0  0  0  0  0  0  0
   36.9940   41.5910   25.7640 C   0  0  0  0  0  0  0  0  0  0  0  0
   38.3020   39.4000   27.1730 C   0  0  0  0  0  0  0  0  0  0  0  0
   35.2130   40.2290   23.8980 N   0  0  0  0  0  0  0  0  0  0  0  0
   39.2530   40.3980   27.0240 C   0  0  0  0  0  0  0  0  0  0  0  0
   40.2030   40.5760   28.0160 C   0  0  0  0  0  0  0  0  0  0  0  0
   31.2970   41.7650   25.7160 C   0  0  0  0  0  0  0  0  0  0  0  0
   39.2690   38.6900   29.1550 C   0  0  0  0  0  0  0  0  0  0  0  0
   33.4780   40.8670   25.2710 C   0  0  0  0  0  0  0  0  0  0  0  0
   37.1550   39.1700   26.3060 C   0  0  0  0  0  0  0  0  0  0  0  0
   32.4250   40.2950   24.5910 C   0  0  0  0  0  0  0  0  0  0  0  0
   38.3140   38.5360   28.2430 C   0  0  0  0  0  0  0  0  0  0  0  0
   31.1930   40.5710   25.0450 C   0  0  0  0  0  0  0  0  0  0  0  0
   38.0000   42.2690   24.9230 O   0  0  0  0  0  0  0  0  0  0  0  0
   39.3770   37.8030   30.1860 N   0  0  0  0  0  0  0  0  0  0  0  0
   37.0590   39.2000   23.1620 O   0  0  0  0  0  0  0  0  0  0  0  0
   32.9070   42.1090   26.3540 S   0  0  0  0  0  0  0  0  0  0  0  0
   35.5890   42.0830   25.5080 C   0  0  0  0  0  0  0  0  0  0  0  0
   36.4710   39.8350   24.0200 C   0  0  0  0  0  0  0  0  0  0  0  0
   40.2130   39.6950   29.0790 C   0  0  0  0  0  0  0  0  0  0  0  0
   34.7930   40.6330   25.2570 C   0  0  0  0  0  0  0  0  0  0  0  0
   32.6610   39.4990   23.4940 O   0  0  0  0  0  0  0  0  0  0  0  0
  1  2  1  0
  1 10  1  0
  2 14  1  0
  3 12  1  0
  4 19  1  0
  4 21  1  0
  5  3  2  0
  5  6  1  0
  6 20  2  0
  7 17  1  0
  8 15  1  0
  9 17  1  0
 10  3  1  0
 11 13  1  0
 11  9  2  0
 12  8  2  0
 13  7  1  0
 16 19  2  0
 18  2  1  0
 19  1  1  0
 20  8  1  0
 21  9  1  0
 21 18  1  0
 22 11  1  0
M  END
$$$$

     RDKit          3D

 12 12  0  0  0  0  0  0  0  0999 V2000
   36.7310   40.2070   25.3460 C   0  0  0  0  0  0  0  0  0  0  0  0
   37.3930   40.5300   26.4450 N   0  0  0  0  0  0  0  0  0  0  0  0
   36.6810   43.4060   25.3850 C   0  0  0  0  0  0  0  0  0  0  0  0
   38.9420   39.2070   27.6710 N   0  0  0  0  0  0  0  0  0  0  0  0
   38.1830   38.6710   25.5660 N   0  0  0  0  0  0  0  0  0  0  0  0
   35.3240   41.1060   24.8180 S   0  0  0  0  0  0  0  0  0  0  0  0
   35.4430   42.8720   25.1530 C   0  0  0  0  0  0  0  0  0  0  0  0
   39.2360   39.6820   28.7890 C   0  0  0  0  0  0  0  0  0  0  0  0
   37.2010   39.1580   24.7520 N   0  0  0  0  0  0  0  0  0  0  0  0
   38.1210   39.5110   26.5920 C   0  0  0  0  0  0  0  0  0  0  0  0
   39.8540   38.7210   29.8640 C   0  0  0  0  0  0  0  0  0  0  0  0
   39.2560   41.3970   29.0290 S   0  0  0  0  0  0  0  0  0  0  0  0
  1  2  2  0
  2 10  2  0
  4  8  1  0
  5 10  2  0
  6  7  1  0
  6  1  1  0
  7  3  2  0
  8 12  2  0
  8 11  1  0
  9  1  1  0
  9  5  1  0
 10  4  1  0
M  END
$$$$

     RDKit          3D

  9  8  0  0  0  0  0  0  0  0999 V2000
   38.7690   39.7920   25.2850 C   0  0  0  0  0  0  0  0  0  0  0  0
   40.6300   41.0750   27.0620 O   0  0  0  0  0  0  0  0  0  0  0  0
   39.4150   38.8760   28.0930 N   0  0  0  0  0  0  0  0  0  0  0  0
   36.6830   42.9940   26.1110 N   0  0  0  0  0  0  0  0  0  0  0  0
   37.9730   41.2560   27.3520 S   0  0  0  0  0  0  0  0  0  0  0  0
   37.9750   38.1500   28.3520 C   0  0  0  0  0  0  0  0  0  0  0  0
   37.8680   42.7900   26.3080 C   0  0  0  0  0  0  0  0  0  0  0  0
   38.9170   43.0000   25.7420 O   0  0  0  0  0  0  0  0  0  0  0  0
   39.4880   40.2020   27.0580 S   0  0  0  0  0  0  0  0  0  0  0  0
  3  6  1  0
  4  7  1  0
  7  5  1  0
  8  7  2  0
  9  1  1  0
  9  2  1  0
  9  5  1  0
  9  3  1  0
M  END
$$$$

     RDKit          3D

 18 18  0  0  0  0  0  0  0  0999 V2000
   37.0010   38.7740   25.0520 O   0  0  0  0  0  0  0  0  0  0  0  0
   38.3410   38.3450   28.0600 C   0  0  0  0  0  0  0  0  0  0  0  0
   37.6270   38.2370   26.9220 N   0  0  0  0  0  0  0  0  0  0  0  0
   34.2770   42.1910   23.0620 N   0  0  0  0  0  0  0  0  0  0  0  0
   39.3160   40.6490   27.6560 C   0  0  0  0  0  0  0  0  0  0  0  0
   35.2350   40.0250   23.2970 C   0  0  0  0  0  0  0  0  0  0  0  0
   39.3410   37.1880   30.0110 C   0  0  0  0  0  0  0  0  0  0  0  0
   39.1890   39.4160   28.5250 N   0  0  0  0  0  0  0  0  0  0  0  0
   38.3120   40.5710   26.4040 C   0  0  0  0  0  0  0  0  0  0  0  0
   40.0840   41.5800   27.7400 O   0  0  0  0  0  0  0  0  0  0  0  0
   36.1120   42.1750   26.5050 C   0  0  0  0  0  0  0  0  0  0  0  0
   34.6330   42.2220   24.1630 C   0  0  0  0  0  0  0  0  0  0  0  0
   38.4670   37.1980   28.9620 C   0  0  0  0  0  0  0  0  0  0  0  0
   33.3690   42.4880   25.0430 C   0  0  0  0  0  0  0  0  0  0  0  0
   35.4820   40.7930   26.1400 C   0  0  0  0  0  0  0  0  0  0  0  0
   37.6320   39.3000   25.9830 C   0  0  0  0  0  0  0  0  0  0  0  0
   35.1180   40.7180   24.6400 N   0  0  0  0  0  0  0  0  0  0  0  0
   37.7720   42.1720   25.9670 S   0  0  0  0  0  0  0  0  0  0  0  0
  1 16  2  0
  2  8  1  0
  2 13  1  0
  3  2  2  0
  4 12  1  0
  5 10  2  0
  5  8  1  0
  6 17  1  0
  9 18  1  0
  9  5  1  0
 12 17  1  0
 12 14  1  0
 13  7  2  0
 15 11  1  0
 16  9  1  0
 16  3  1  0
 17 15  1  0
 18 11  1  0
M  END
$$$$

     RDKit          3D

 22 25  0  0  0  0  0  0  0  0999 V2000
   36.7950   39.1970   25.1970 C   0  0  0  0  0  0  0  0  0  0  0  0
   36.6400   42.5830   25.9850 C   0  0  0  0  0  0  0  0  0  0  0  0
   30.7520   39.8500   24.6490 O   0  0  0  0  0  0  0  0  0  0  0  0
   34.4610   39.9920   24.7890 C   0  0  0  0  0  0  0  0  0  0  0  0
   37.4530   38.1300   25.3980 O   0  0  0  0  0  0  0  0  0  0  0  0
   38.1650   40.2380   26.8910 C   0  0  0  0  0  0  0  0  0  0  0  0
   39.4560   40.0160   28.5550 N   0  0  0  0  0  0  0  0  0  0  0  0
   33.6470   42.0190   26.0400 C   0  0  0  0  0  0  0  0  0  0  0  0
   40.1140   41.4140   26.8740 C   0  0  0  0  0  0  0  0  0  0  0  0
   38.4100   39.5450   27.9860 C   0  0  0  0  0  0  0  0  0  0  0  0
   33.2680   39.5890   24.0460 C   0  0  0  0  0  0  0  0  0  0  0  0
   39.4100   40.4140   29.6990 O   0  0  0  0  0  0  0  0  0  0  0  0
   39.1580   40.7530   26.1320 C   0  0  0  0  0  0  0  0  0  0  0  0
   36.7510   42.6150   24.5910 O   0  0  0  0  0  0  0  0  0  0  0  0
   32.3310   41.4580   25.6130 C   0  0  0  0  0  0  0  0  0  0  0  0
   37.0140   40.1320   26.2020 N   0  0  0  0  0  0  0  0  0  0  0  0
   36.0230   41.2320   26.4130 C   0  0  0  0  0  0  0  0  0  0  0  0
   32.1020   39.9830   25.1970 C   0  0  0  0  0  0  0  0  0  0  0  0
   36.7590   39.4550   23.7910 C   0  0  0  0  0  0  0  0  0  0  0  0
   35.4660   39.0160   24.6130 C   0  0  0  0  0  0  0  0  0  0  0  0
   40.6100   40.2060   27.7780 C   0  0  0  0  0  0  0  0  0  0  0  0
   34.7420   41.0290   25.6840 C   0  0  0  0  0  0  0  0  0  0  0  0
  1  5  1  0
  1 16  1  0
  4 22  2  0
  6 13  1  0
  6 10  1  0
  7 12  1  0
  9 21  1  0
 10  7  1  0
 11  4  1  0
 11 18  1  0
 13  9  1  0
 14  2  1  0
 15  8  1  0
 16 17  1  0
 16  6  1  0
 17  2  1  0
 18  3  1  0
 18 15  1  0
 19  1  1  0
 20 19  1  0
 20  4  1  0
 20  1  1  0
 21  7  1  0
 22  8  1  0
 22 17  1  0
M  END
$$$$

     RDKit          3D

 10  9  0  0  0  0  0  0  0  0999 V2000
   38.0150   39.3870   26.9560 C   0  0  0  0  0  0  0  0  0  0  0  0
   37.2330   41.3770   26.8190 O   0  0  0  0  0  0  0  0  0  0  0  0
   37.9850   38.7590   28.2570 O   0  0  0  0  0  0  0  0  0  0  0  0
   40.4080   42.2890   25.6620 O   0  0  0  0  0  0  0  0  0  0  0  0
   40.4190   41.9870   27.0190 P   0  0  0  0  0  0  0  0  0  0  0  0
   41.9750   41.5810   27.1890 O   0  0  0  0  0  0  0  0  0  0  0  0
   38.4490   39.3900   25.5450 N   0  0  0  0  0  0  0  0  0  0  0  0
   38.2660   40.8790   27.3140 C   0  0  0  0  0  0  0  0  0  0  0  0
   39.5450   41.0480   27.8380 O   0  0  0  0  0  0  0  0  0  0  0  0
   40.3010   43.3800   27.8180 O   0  0  0  0  0  0  0  0  0  0  0  0
  1  8  1  0
  1  3  2  0
  2  8  2  0
  4  5  2  0
  5  6  1  0
  5 10  1  0
  5  9  1  0
  7  1  1  0
  8  9  1  0
M  END
$$$$

     RDKit          3D

 18 18  0  0  0  0  0  0  0  0999 V2000
   39.0480   40.4130   25.5670 C   0  0  0  0  0  0  0  0  0  0  0  0
   36.1230   42.4960   24.4590 C   0  0  0  0  0  0  0  0  0  0  0  0
   38.5200   39.8710   27.8450 C   0  0  0  0  0  0  0  0  0  0  0  0
   41.3910   42.4750   26.5070 P   0  0  0  0  0  0  0  0  0  0  0  0
   37.7020   40.6990   25.3640 C   0  0  0  0  0  0  0  0  0  0  0  0
   36.7790   39.9510   26.0920 O   0  0  0  0  0  0  0  0  0  0  0  0
   41.3000   43.9320   26.3430 O   0  0  0  0  0  0  0  0  0  0  0  0
   42.2650   42.2400   27.8900 O   0  0  0  0  0  0  0  0  0  0  0  0
   39.9160   42.0930   27.1040 O   0  0  0  0  0  0  0  0  0  0  0  0
   37.4420   39.2710   27.3060 N   0  0  0  0  0  0  0  0  0  0  0  0
   39.0880   38.0130   29.3590 C   0  0  0  0  0  0  0  0  0  0  0  0
   35.2890   42.5930   25.7460 C   0  0  0  0  0  0  0  0  0  0  0  0
   38.8790   39.5190   29.2480 C   0  0  0  0  0  0  0  0  0  0  0  0
   40.4000   39.9810   27.4030 N   0  0  0  0  0  0  0  0  0  0  0  0
   39.2490   40.8340   29.6200 O   0  0  0  0  0  0  0  0  0  0  0  0
   41.7380   41.5060   25.4330 O   0  0  0  0  0  0  0  0  0  0  0  0
   37.2950   41.6620   24.4800 N   0  0  0  0  0  0  0  0  0  0  0  0
   39.4270   40.6830   26.9550 C   0  0  0  0  0  0  0  0  0  0  0  0
  1 18  1  0
  2 17  2  3
  2 12  1  0
  3 13  1  0
  4  9  1  0
  4  8  1  0
  5 17  1  0
  5  1  1  0
  5  6  1  0
  6 10  1  0
  7  4  1  0
 10  3  2  0
 13 11  1  0
 13 15  1  0
 16  4  2  0
 18  9  1  0
 18 14  1  0
 18  3  1  0
M  END
$$$$

     RDKit          3D

 12 11  0  0  0  0  0  0  0  0999 V2000
   35.5810   38.7100   24.2260 Br  0  0  0  0  0  0  0  0  0  0  0  0
   38.6530   39.1310   28.7440 C   0  0  0  0  0  0  0  0  0  0  0  0
   38.4660   40.3220   26.4930 C   0  0  0  0  0  0  0  0  0  0  0  0
   38.4470   41.1140   25.2720 O   0  0  0  0  0  0  0  0  0  0  0  0
   37.4420   38.1190   26.4800 O   0  0  0  0  0  0  0  0  0  0  0  0
   39.2740   39.4430   27.4520 N   0  0  0  0  0  0  0  0  0  0  0  0
   35.4870   41.2650   25.7680 N   0  0  0  0  0  0  0  0  0  0  0  0
   39.3610   37.9790   29.5020 C   0  0  0  0  0  0  0  0  0  0  0  0
   37.2740   39.4560   26.2480 C   0  0  0  0  0  0  0  0  0  0  0  0
   38.8370   40.4010   29.5540 C   0  0  0  0  0  0  0  0  0  0  0  0
   36.1950   42.3860   26.2880 C   0  0  0  0  0  0  0  0  0  0  0  0
   36.0010   39.9320   25.7480 C   0  0  0  0  0  0  0  0  0  0  0  0
  2  8  1  0
  2 10  1  0
  3  6  1  0
  4  3  2  0
  6  2  1  0
  7 11  1  0
  9  5  1  0
  9  3  1  0
 12  1  1  0
 12  7  1  0
 12  9  1  0
M  END
$$$$

     RDKit          3D

 25 27  0  0  0  0  0  0  0  0999 V2000
   33.8990   42.6000   24.8200 C   0  0  0  0  0  0  0  0  0  0  0  0
   39.4540   38.5540   29.0030 C   0  0  0  0  0  0  0  0  0  0  0  0
   36.6880   40.4890   26.3330 N   0  0  0  0  0  0  0  0  0  0  0  0
   41.6160   41.6290   30.2260 C   0  0  0  0  0  0  0  0  0  0  0  0
   35.0800   43.5370   24.8660 C   0  0  0  0  0  0  0  0  0  0  0  0
   38.1600   38.5430   28.2900 C   0  0  0  0  0  0  0  0  0  0  0  0
   35.8580   41.1430   23.7070 C   0  0  0  0  0  0  0  0  0  0  0  0
   36.0980   43.0090   25.9750 C   0  0  0  0  0  0  0  0  0  0  0  0
   34.8890   41.4790   24.8170 C   0  0  0  0  0  0  0  0  0  0  0  0
   40.3880   39.5860   28.2870 C   0  0  0  0  0  0  0  0  0  0  0  0
   39.4100   37.3080   29.8350 C   0  0  0  0  0  0  0  0  0  0  0  0
   42.7100   40.7000   29.7050 C   0  0  0  0  0  0  0  0  0  0  0  0
   33.0910   39.9240   23.6760 C   0  0  0  0  0  0  0  0  0  0  0  0
   38.0300   38.7150   25.7910 C   0  0  0  0  0  0  0  0  0  0  0  0
   34.7020   40.1260   24.0370 C   0  0  0  0  0  0  0  0  0  0  0  0
   35.7340   41.5010   26.2130 C   0  0  0  0  0  0  0  0  0  0  0  0
   32.3520   40.7770   23.9950 O   0  0  0  0  0  0  0  0  0  0  0  0
   38.2960   39.0660   27.0780 N   0  0  0  0  0  0  0  0  0  0  0  0
   37.2320   40.9230   23.8670 O   0  0  0  0  0  0  0  0  0  0  0  0
   35.3990   39.0550   24.0260 O   0  0  0  0  0  0  0  0  0  0  0  0
   40.2790   40.8560   27.6990 O   0  0  0  0  0  0  0  0  0  0  0  0
   37.9200   40.1740   26.7680 C   0  0  0  0  0  0  0  0  0  0  0  0
   40.2990   41.0220   30.1890 N   0  0  0  0  0  0  0  0  0  0  0  0
   40.3250   39.6200   29.7170 C   0  0  0  0  0  0  0  0  0  0  0  0
   32.5000   38.9810   23.1430 N   0  0  0  0  0  0  0  0  0  0  0  0
  1  5  1  0
  2 24  1  0
  2 11  1  0
  3 22  1  0
  5  8  1  0
  6  2  1  0
  7 19  1  0
  7 15  1  0
  7  9  1  0
  8 16  1  0
  9  1  1  0
  9 16  1  0
 10 21  1  0
 10  2  1  0
 10 24  1  0
 12  4  1  0
 13 17  2  0
 13 15  1  0
 14 18  1  0
 15 20  1  0
 15  9  1  0
 16  3  1  0
 18  6  1  0
 22 18  1  0
 23  4  1  0
 24 23  1  0
 25 13  1  0
M  END
$$$$
