
     RDKit          3D

 10  9  0  0  0  0  0  0  0  0999 V2000
   38.0450   40.3550   28.4690 O   0  0  0  0  0  0  0  0  0  0  0  0
   39.9880   42.5210   27.9380 O   0  0  0  0  0  0  0  0  0  0  0  0
   41.0780   41.3400   30.8660 N   0  0  0  0  0  0  0  0  0  0  0  0
   39.6110   42.8470   29.4010 P   0  0  0  0  0  0  0  0  0  0  0  0
   38.8170   40.3480   29.7960 C   0  0  0  0  0  0  0  0  0  0  0  0
   40.9910   43.6930   29.5540 O   0  0  0  0  0  0  0  0  0  0  0  0
   39.5840   38.9890   30.0780 C   0  0  0  0  0  0  0  0  0  0  0  0
   38.4720   43.8490   29.8730 O   0  0  0  0  0  0  0  0  0  0  0  0
   39.6010   41.5920   30.4330 C   0  0  0  0  0  0  0  0  0  0  0  0
   37.2420   41.4070   27.9910 C   0  0  0  0  0  0  0  0  0  0  0  0
  1  5  1  0
  2  4  2  0
  4  6  1  0
  4  8  1  0
  4  9  1  0
  5  7  1  0
  5  9  1  0
  9  3  1  0
 10  1  1  0
M  END
$$$$

     RDKit          3D

  9  8  0  0  0  0  0  0  0  0999 V2000
   38.8890   40.9170   29.4140 C   0  0  0  0  0  0  0  0  0  0  0  0
   39.3110   42.4570   29.2280 C   0  0  0  0  0  0  0  0  0  0  0  0
   39.6280   44.0340   27.2500 O   0  0  0  0  0  0  0  0  0  0  0  0
   39.9020   42.8550   27.8420 C   0  0  0  0  0  0  0  0  0  0  0  0
   37.9560   40.4700   28.7600 O   0  0  0  0  0  0  0  0  0  0  0  0
   39.5200   40.0500   30.2910 N   0  0  0  0  0  0  0  0  0  0  0  0
   39.8060   43.0900   30.3990 O   0  0  0  0  0  0  0  0  0  0  0  0
   38.9750   38.7340   30.6510 C   0  0  0  0  0  0  0  0  0  0  0  0
   40.5990   42.0520   27.1200 O   0  0  0  0  0  0  0  0  0  0  0  0
  1  6  1  0
  2  1  1  0
  2  7  1  0
  3  4  1  0
  4  2  1  0
  5  1  2  0
  6  8  1  0
  9  4  2  0
M  END
$$$$

     RDKit          3D

  9  8  0  0  0  0  0  0  0  0999 V2000
   40.4950   41.6150   31.6620 C   0  0  0  0  0  0  0  0  0  0  0  0
   40.4730   43.0340   31.1030 C   0  0  0  0  0  0  0  0  0  0  0  0
   39.6520   43.9030   31.5470 O   0  0  0  0  0  0  0  0  0  0  0  0
   39.5970   38.4770   30.5610 C   0  0  0  0  0  0  0  0  0  0  0  0
   39.6820   40.7410   30.7190 C   0  0  0  0  0  0  0  0  0  0  0  0
   41.2520   43.2510   30.1450 O   0  0  0  0  0  0  0  0  0  0  0  0
   40.4170   39.6130   30.1420 N   0  0  0  0  0  0  0  0  0  0  0  0
   38.4720   41.3240   29.9810 C   0  0  0  0  0  0  0  0  0  0  0  0
   38.1180   40.6590   28.6450 C   0  0  0  0  0  0  0  0  0  0  0  0
  2  3  1  0
  2  1  1  0
  5  8  1  0
  5  1  1  0
  6  2  2  0
  7  4  1  0
  7  5  1  0
  9  8  1  0
M  END
$$$$

     RDKit          3D

 15 16  0  0  0  0  0  0  0  0999 V2000
   39.0930   43.4090   29.3550 O   0  0  0  0  0  0  0  0  0  0  0  0
   41.4380   42.5040   29.6020 O   0  0  0  0  0  0  0  0  0  0  0  0
   36.5640   42.1590   27.0230 C   0  0  0  0  0  0  0  0  0  0  0  0
   39.1350   42.1030   26.5500 O   0  0  0  0  0  0  0  0  0  0  0  0
   34.4850   41.3930   25.3500 S   0  0  0  0  0  0  0  0  0  0  0  0
   38.2620   39.6100   27.8680 O   0  0  0  0  0  0  0  0  0  0  0  0
   35.0360   43.8780   26.0460 C   0  0  0  0  0  0  0  0  0  0  0  0
   36.4890   43.4470   26.0070 C   0  0  0  0  0  0  0  0  0  0  0  0
   36.1780   41.0970   25.9770 C   0  0  0  0  0  0  0  0  0  0  0  0
   40.0980   42.3220   29.0080 P   0  0  0  0  0  0  0  0  0  0  0  0
   34.0210   42.7730   26.4150 C   0  0  0  0  0  0  0  0  0  0  0  0
   39.5030   40.8250   29.3320 O   0  0  0  0  0  0  0  0  0  0  0  0
   40.3920   42.0970   27.2630 C   0  0  0  0  0  0  0  0  0  0  0  0
   38.5300   40.7080   28.3200 C   0  0  0  0  0  0  0  0  0  0  0  0
   37.9390   41.9530   27.6370 C   0  0  0  0  0  0  0  0  0  0  0  0
  3  9  1  0
  3 15  1  0
  4 13  1  0
  5  9  1  0
  5 11  1  0
  6 14  2  0
  7 11  1  0
  8  7  1  0
  8  3  1  0
 10 12  1  0
 10  1  2  0
 10  2  1  0
 13 10  1  0
 14 12  1  0
 15  4  1  0
 15 14  1  0
M  END
$$$$

     RDKit          3D

  7  8  0  0  0  0  0  0  0  0999 V2000
   39.1720   42.3270   28.7560 N   0  0  0  0  0  0  0  0  0  0  0  0
   38.9200   42.1490   31.4470 O   0  0  0  0  0  0  0  0  0  0  0  0
   38.4320   39.6930   29.2240 C   0  0  0  0  0  0  0  0  0  0  0  0
   39.4680   41.4560   30.3690 C   0  0  0  0  0  0  0  0  0  0  0  0
   38.8260   38.8720   30.5150 C   0  0  0  0  0  0  0  0  0  0  0  0
   38.6640   41.1420   29.2690 C   0  0  0  0  0  0  0  0  0  0  0  0
   40.1690   43.0340   29.5710 C   0  0  0  0  0  0  0  0  0  0  0  0
  1  6  1  0
  1  7  1  0
  1  4  1  0
  3  5  1  0
  4  2  1  0
  6  3  1  0
  6  4  1  0
  7  4  1  0
M  END
$$$$

     RDKit          3D

 14 13  0  0  0  0  0  0  0  0999 V2000
   37.3620   40.8700   26.6180 N   0  0  0  0  0  0  0  0  0  0  0  0
   38.4660   39.7000   29.7290 C   0  0  0  0  0  0  0  0  0  0  0  0
   39.7730   41.4490   30.9180 C   0  0  0  0  0  0  0  0  0  0  0  0
   37.5840   39.6500   26.1560 O   0  0  0  0  0  0  0  0  0  0  0  0
   41.9840   40.9640   31.5620 O   0  0  0  0  0  0  0  0  0  0  0  0
   41.0900   41.7950   31.3880 C   0  0  0  0  0  0  0  0  0  0  0  0
   41.2080   43.2640   31.6380 C   0  0  0  0  0  0  0  0  0  0  0  0
   36.3620   41.7760   25.9800 C   0  0  0  0  0  0  0  0  0  0  0  0
   39.3310   41.7130   29.5660 N   0  0  0  0  0  0  0  0  0  0  0  0
   39.1470   38.5870   29.9100 N   0  0  0  0  0  0  0  0  0  0  0  0
   38.7710   42.4410   27.2110 O   0  0  0  0  0  0  0  0  0  0  0  0
   38.2250   41.4150   27.6360 C   0  0  0  0  0  0  0  0  0  0  0  0
   39.0190   40.6460   28.6790 C   0  0  0  0  0  0  0  0  0  0  0  0
   37.3290   40.0630   30.2750 O   0  0  0  0  0  0  0  0  0  0  0  0
  1 12  1  0
  2 10  1  0
  2 14  2  0
  3  6  1  0
  4  1  1  0
  6  5  2  0
  6  7  1  0
  8  1  1  0
  9  3  1  0
 11 12  2  0
 13 12  1  0
 13  9  1  0
 13  2  1  0
M  END
$$$$

     RDKit          3D

  4  3  0  0  0  0  0  0  0  0999 V2000
   38.6780   41.0280   30.3570 C   0  0  0  0  0  0  0  0  0  0  0  0
   39.9360   41.4690   30.9760 N   0  0  0  0  0  0  0  0  0  0  0  0
   38.7320   39.6800   29.6260 C   0  0  0  0  0  0  0  0  0  0  0  0
   39.3730   38.1370   30.4770 Br  0  0  0  0  0  0  0  0  0  0  0  0
  1  2  1  0
  3  1  1  0
  3  4  1  0
M  END
$$$$

     RDKit          3D

 22 22  0  0  0  0  0  0  0  0999 V2000
   38.4410   40.5270   29.9440 C   0  0  0  0  0  0  0  0  0  0  0  0
   43.9350   43.4990   28.5150 C   0  0  0  0  0  0  0  0  0  0  0  0
   39.9890   42.8280   28.8900 C   0  0  0  0  0  0  0  0  0  0  0  0
   43.1840   41.4310   29.9470 O   0  0  0  0  0  0  0  0  0  0  0  0
   42.1570   42.1040   29.3210 C   0  0  0  0  0  0  0  0  0  0  0  0
   35.5770   42.4960   26.7770 C   0  0  0  0  0  0  0  0  0  0  0  0
   40.4740   41.0370   30.9790 C   0  0  0  0  0  0  0  0  0  0  0  0
   41.2350   40.1540   30.9500 N   0  0  0  0  0  0  0  0  0  0  0  0
   39.6630   41.3050   31.7760 O   0  0  0  0  0  0  0  0  0  0  0  0
   44.0420   43.0180   27.3860 O   0  0  0  0  0  0  0  0  0  0  0  0
   38.8980   39.3120   30.2960 C   0  0  0  0  0  0  0  0  0  0  0  0
   44.8370   44.1940   29.0600 O   0  0  0  0  0  0  0  0  0  0  0  0
   42.3390   43.6690   29.1500 C   0  0  0  0  0  0  0  0  0  0  0  0
   37.1560   44.2180   26.6940 C   0  0  0  0  0  0  0  0  0  0  0  0
   36.8760   42.7320   27.1920 C   0  0  0  0  0  0  0  0  0  0  0  0
   40.3650   45.2100   29.2950 C   0  0  0  0  0  0  0  0  0  0  0  0
   40.8350   42.2520   30.0830 C   0  0  0  0  0  0  0  0  0  0  0  0
   40.9060   44.0100   28.6180 C   0  0  0  0  0  0  0  0  0  0  0  0
   38.2630   40.7010   26.0200 C   0  0  0  0  0  0  0  0  0  0  0  0
   37.6470   40.6890   28.6920 C   0  0  0  0  0  0  0  0  0  0  0  0
   39.5280   42.5130   27.4660 C   0  0  0  0  0  0  0  0  0  0  0  0
   38.1170   41.5700   27.4690 S   0  0  0  0  0  0  0  0  0  0  0  0
  1 11  2  0
  2 12  1  0
  3 21  1  0
  3 17  1  0
  5  4  1  0
  5 17  1  0
  6 15  1  0
  7  9  2  0
  8  7  1  0
 10  2  2  0
 13  2  1  0
 13  5  1  0
 14 15  1  0
 15 22  1  0
 17  7  1  0
 18  3  1  0
 18 13  1  0
 18 16  1  0
 20  1  1  0
 21 22  1  0
 22 19  1  0
 22 20  1  0
M  END
$$$$

     RDKit          3D

 15 16  0  0  0  0  0  0  0  0999 V2000
   37.7560   43.0380   27.1120 O   0  0  0  0  0  0  0  0  0  0  0  0
   37.9010   40.8340   26.2110 C   0  0  0  0  0  0  0  0  0  0  0  0
   37.2060   44.7940   25.3030 O   0  0  0  0  0  0  0  0  0  0  0  0
   37.5940   39.4980   26.5840 O   0  0  0  0  0  0  0  0  0  0  0  0
   38.4190   40.0960   29.2260 C   0  0  0  0  0  0  0  0  0  0  0  0
   36.0270   43.9570   25.5740 C   0  0  0  0  0  0  0  0  0  0  0  0
   35.7000   41.7780   27.0110 O   0  0  0  0  0  0  0  0  0  0  0  0
   38.1670   41.3720   28.6980 O   0  0  0  0  0  0  0  0  0  0  0  0
   39.6200   38.8010   30.7680 C   0  0  0  0  0  0  0  0  0  0  0  0
   39.4920   40.2170   30.2330 C   0  0  0  0  0  0  0  0  0  0  0  0
   40.6880   40.6580   29.5560 N   0  0  0  0  0  0  0  0  0  0  0  0
   34.8760   44.7380   26.1890 C   0  0  0  0  0  0  0  0  0  0  0  0
   38.1530   41.7020   27.4130 C   0  0  0  0  0  0  0  0  0  0  0  0
   36.5610   41.4700   25.8940 C   0  0  0  0  0  0  0  0  0  0  0  0
   36.5400   42.8760   26.5090 C   0  0  0  0  0  0  0  0  0  0  0  0
  1 13  1  0
  2  4  1  0
  2 13  1  0
  3  6  1  0
  5 10  1  0
  6 12  1  0
  8  5  1  0
 10  9  1  0
 11 10  1  0
 13  8  1  0
 14  2  1  0
 14 15  1  0
 14  7  1  0
 15  6  1  0
 15  7  1  0
 15  1  1  0
M  END
$$$$

     RDKit          3D

  8  7  0  0  0  0  0  0  0  0999 V2000
   38.4920   41.8020   25.7340 O   0  0  0  0  0  0  0  0  0  0  0  0
   38.4610   41.3220   28.6380 S   0  0  0  0  0  0  0  0  0  0  0  0
   37.5350   42.3210   28.2100 O   0  0  0  0  0  0  0  0  0  0  0  0
   38.6760   40.2580   27.3450 N   0  0  0  0  0  0  0  0  0  0  0  0
   38.1590   39.6320   25.3030 N   0  0  0  0  0  0  0  0  0  0  0  0
   38.4390   40.6240   26.1190 C   0  0  0  0  0  0  0  0  0  0  0  0
   38.1210   40.3440   29.6620 O   0  0  0  0  0  0  0  0  0  0  0  0
   39.7780   42.0420   29.0810 O   0  0  0  0  0  0  0  0  0  0  0  0
  1  6  2  0
  2  8  1  0
  2  7  1  0
  3  2  1  0
  4  2  1  0
  5  6  1  0
  6  4  1  0
M  END
$$$$

     RDKit          3D

  7  7  0  0  0  0  0  0  0  0999 V2000
   38.6660   40.9620   28.5880 C   0  0  0  0  0  0  0  0  0  0  0  0
   38.5170   42.9440   27.0720 N   0  0  0  0  0  0  0  0  0  0  0  0
   38.3080   41.8690   27.3520 C   0  0  0  0  0  0  0  0  0  0  0  0
   39.5630   40.2200   30.5760 N   0  0  0  0  0  0  0  0  0  0  0  0
   38.3220   39.6630   28.7010 C   0  0  0  0  0  0  0  0  0  0  0  0
   39.4040   41.4190   29.7570 C   0  0  0  0  0  0  0  0  0  0  0  0
   38.8410   39.1030   29.9700 C   0  0  0  0  0  0  0  0  0  0  0  0
  1  5  2  0
  1  6  1  0
  2  3  2  0
  3  1  1  0
  5  7  1  0
  6  4  1  0
  7  4  2  0
M  END
$$$$

     RDKit          3D

  4  3  0  0  0  0  0  0  0  0999 V2000
   39.0390   41.4620   29.8390 O   0  0  0  0  0  0  0  0  0  0  0  0
   38.8780   39.3180   29.9230 C   0  0  0  0  0  0  0  0  0  0  0  0
   39.2120   37.7250   30.2520 Br  0  0  0  0  0  0  0  0  0  0  0  0
   38.5600   40.3830   30.0300 N   0  0  0  0  0  0  0  0  0  0  0  0
  1  4  2  0
  2  4  1  0
  2  3  1  0
M  END
$$$$

     RDKit          3D

 18 18  0  0  0  0  0  0  0  0999 V2000
   37.7100   41.1400   27.2070 C   0  0  0  0  0  0  0  0  0  0  0  0
   39.4020   42.4380   28.3330 O   0  0  0  0  0  0  0  0  0  0  0  0
   38.8940   38.9250   30.8320 C   0  0  0  0  0  0  0  0  0  0  0  0
   35.7220   41.8320   26.2950 C   0  0  0  0  0  0  0  0  0  0  0  0
   35.8510   39.5890   27.4690 N   0  0  0  0  0  0  0  0  0  0  0  0
   33.2850   41.9390   26.2620 C   0  0  0  0  0  0  0  0  0  0  0  0
   38.4600   41.4180   30.7270 O   0  0  0  0  0  0  0  0  0  0  0  0
   36.1820   40.8630   26.9380 C   0  0  0  0  0  0  0  0  0  0  0  0
   34.5870   42.5740   25.9950 C   0  0  0  0  0  0  0  0  0  0  0  0
   32.3340   38.6080   27.6160 O   0  0  0  0  0  0  0  0  0  0  0  0
   33.2620   40.6740   26.8040 C   0  0  0  0  0  0  0  0  0  0  0  0
   38.9750   41.1370   28.1540 C   0  0  0  0  0  0  0  0  0  0  0  0
   38.5840   40.2380   29.6860 P   0  0  0  0  0  0  0  0  0  0  0  0
   38.2850   41.4600   25.9160 O   0  0  0  0  0  0  0  0  0  0  0  0
   37.3460   39.7330   29.2390 O   0  0  0  0  0  0  0  0  0  0  0  0
   40.0320   38.0500   30.4910 C   0  0  0  0  0  0  0  0  0  0  0  0
   33.3840   39.4490   27.3690 C   0  0  0  0  0  0  0  0  0  0  0  0
   34.6200   39.1570   28.0080 C   0  0  0  0  0  0  0  0  0  0  0  0
  1 14  1  0
  1 12  1  0
  4  8  1  0
  5 18  1  0
  6 11  2  0
  8  1  1  0
  8  5  1  0
  9  6  1  0
  9  4  1  0
 11 17  2  0
 12  2  1  0
 12 13  1  0
 13 15  2  0
 13  7  1  0
 13  3  1  0
 16  3  1  0
 17 10  1  0
 17 18  1  0
M  END
$$$$

     RDKit          3D

 15 14  0  0  0  0  0  0  0  0999 V2000
   39.4040   45.7510   26.7050 C   0  0  0  0  0  0  0  0  0  0  0  0
   38.3410   39.7520   26.2080 O   0  0  0  0  0  0  0  0  0  0  0  0
   38.4860   39.6640   29.9520 C   0  0  0  0  0  0  0  0  0  0  0  0
   36.4720   42.2040   25.1980 O   0  0  0  0  0  0  0  0  0  0  0  0
   38.4970   41.0780   26.4810 C   0  0  0  0  0  0  0  0  0  0  0  0
   37.9550   40.0670   28.7480 C   0  0  0  0  0  0  0  0  0  0  0  0
   37.9970   44.6500   25.3680 S   0  0  0  0  0  0  0  0  0  0  0  0
   39.6910   39.8490   29.7420 O   0  0  0  0  0  0  0  0  0  0  0  0
   38.5450   38.1750   30.0870 N   0  0  0  0  0  0  0  0  0  0  0  0
   37.3170   41.6690   27.3890 C   0  0  0  0  0  0  0  0  0  0  0  0
   38.6060   43.2250   26.6770 S   0  0  0  0  0  0  0  0  0  0  0  0
   35.9460   43.2550   26.0550 C   0  0  0  0  0  0  0  0  0  0  0  0
   37.6820   41.5310   28.7740 C   0  0  0  0  0  0  0  0  0  0  0  0
   40.2120   42.8230   27.0840 O   0  0  0  0  0  0  0  0  0  0  0  0
   36.9020   43.0830   27.2540 C   0  0  0  0  0  0  0  0  0  0  0  0
  2  5  1  0
  3  8  1  0
  3  9  1  0
  4 12  1  0
  6 13  1  0
  6  3  1  0
  7 11  1  0
  7  1  1  0
 10  5  1  0
 10 13  1  0
 11 14  2  0
 11 15  1  0
 15 12  1  0
 15 10  1  0
M  END
$$$$

     RDKit          3D

 14 13  0  0  0  0  0  0  0  0999 V2000
   37.6090   39.7140   31.0760 O   0  0  0  0  0  0  0  0  0  0  0  0
   38.5190   41.3470   27.3450 C   0  0  0  0  0  0  0  0  0  0  0  0
   41.1600   41.8200   29.8790 O   0  0  0  0  0  0  0  0  0  0  0  0
   38.5730   39.1430   30.5290 C   0  0  0  0  0  0  0  0  0  0  0  0
   38.6820   41.1780   29.5860 C   0  0  0  0  0  0  0  0  0  0  0  0
   37.6790   43.4220   25.9680 C   0  0  0  0  0  0  0  0  0  0  0  0
   37.7690   41.4000   28.6660 C   0  0  0  0  0  0  0  0  0  0  0  0
   39.0000   37.8670   30.8760 C   0  0  0  0  0  0  0  0  0  0  0  0
   39.5140   43.6690   29.3370 O   0  0  0  0  0  0  0  0  0  0  0  0
   39.6620   42.4780   30.1950 P   0  0  0  0  0  0  0  0  0  0  0  0
   38.7710   42.4430   31.5730 O   0  0  0  0  0  0  0  0  0  0  0  0
   39.9580   40.9570   27.5250 N   0  0  0  0  0  0  0  0  0  0  0  0
   38.4900   42.6040   26.5850 C   0  0  0  0  0  0  0  0  0  0  0  0
   39.2490   39.8850   29.6310 N   0  0  0  0  0  0  0  0  0  0  0  0
  2 12  1  0
  2  7  1  0
  3 10  1  0
  4  8  1  0
  4  1  2  0
  5  7  1  0
  5 14  1  0
  5 10  1  0
  6 13  2  0
  9 10  2  0
 10 11  1  0
 13  2  1  0
 14  4  1  0
M  END
$$$$

     RDKit          3D

 11 11  0  0  0  0  0  0  0  0999 V2000
   35.3930   39.2440   28.1880 O   0  0  0  0  0  0  0  0  0  0  0  0
   33.2260   40.8620   23.5140 O   0  0  0  0  0  0  0  0  0  0  0  0
   34.1870   41.5320   25.5800 C   0  0  0  0  0  0  0  0  0  0  0  0
   32.9390   41.0070   26.1980 C   0  0  0  0  0  0  0  0  0  0  0  0
   35.2310   40.7460   26.0970 C   0  0  0  0  0  0  0  0  0  0  0  0
   34.0580   42.8830   26.0520 C   0  0  0  0  0  0  0  0  0  0  0  0
   36.3950   40.2720   25.1220 C   0  0  0  0  0  0  0  0  0  0  0  0
   33.4700   40.4810   27.3430 C   0  0  0  0  0  0  0  0  0  0  0  0
   34.9240   40.2290   27.2620 C   0  0  0  0  0  0  0  0  0  0  0  0
   35.4870   43.8330   25.9750 S   0  0  0  0  0  0  0  0  0  0  0  0
   34.1290   41.8090   24.0850 C   0  0  0  0  0  0  0  0  0  0  0  0
  2 11  1  0
  3 11  1  0
  3  6  1  0
  3  5  1  0
  3  4  1  0
  4  8  1  0
  5  7  1  0
  5  9  1  0
  9  8  1  0
  9  1  1  0
 10  6  1  0
M  END
$$$$

     RDKit          3D

  7  6  0  0  0  0  0  0  0  0999 V2000
   40.2820   42.6690   29.7210 O   0  0  0  0  0  0  0  0  0  0  0  0
   40.7430   40.5380   31.0170 N   0  0  0  0  0  0  0  0  0  0  0  0
   39.3470   38.5070   30.7350 C   0  0  0  0  0  0  0  0  0  0  0  0
   39.2400   42.1310   28.9310 C   0  0  0  0  0  0  0  0  0  0  0  0
   39.9900   39.7330   30.0450 C   0  0  0  0  0  0  0  0  0  0  0  0
   37.8860   40.2110   29.0730 O   0  0  0  0  0  0  0  0  0  0  0  0
   38.9880   40.6870   29.3500 C   0  0  0  0  0  0  0  0  0  0  0  0
  4  7  1  0
  4  1  1  0
  5  3  1  0
  5  2  1  0
  6  7  2  0
  7  5  1  0
M  END
$$$$

     RDKit          3D

 13 12  0  0  0  0  0  0  0  0999 V2000
   38.0570   39.1170   29.6660 O   0  0  0  0  0  0  0  0  0  0  0  0
   39.9030   44.4020   30.2350 O   0  0  0  0  0  0  0  0  0  0  0  0
   39.4980   42.4740   31.2690 O   0  0  0  0  0  0  0  0  0  0  0  0
   39.2210   42.6090   28.7840 C   0  0  0  0  0  0  0  0  0  0  0  0
   39.2220   39.1790   29.9430 C   0  0  0  0  0  0  0  0  0  0  0  0
   39.8980   40.2420   29.4120 N   0  0  0  0  0  0  0  0  0  0  0  0
   37.5880   41.2810   26.3980 C   0  0  0  0  0  0  0  0  0  0  0  0
   39.5910   43.1740   30.2080 C   0  0  0  0  0  0  0  0  0  0  0  0
   38.0480   42.0960   25.5810 O   0  0  0  0  0  0  0  0  0  0  0  0
   39.7600   38.1710   30.9120 C   0  0  0  0  0  0  0  0  0  0  0  0
   36.3670   41.0850   26.6140 O   0  0  0  0  0  0  0  0  0  0  0  0
   39.4230   41.1600   28.3000 C   0  0  0  0  0  0  0  0  0  0  0  0
   38.5530   40.4470   27.2080 C   0  0  0  0  0  0  0  0  0  0  0  0
  1  5  2  0
  4  8  1  0
  5 10  1  0
  6  5  1  0
  7 11  1  0
  7 13  1  0
  8  2  2  0
  8  3  1  0
  9  7  2  0
 12  4  1  0
 12  6  1  0
 13 12  1  0
M  END
$$$$

     RDKit          3D

 15 15  0  0  0  0  0  0  0  0999 V2000
   37.1000   40.2400   30.4080 O   0  0  0  0  0  0  0  0  0  0  0  0
   32.8870   37.5940   32.1050 O   0  0  0  0  0  0  0  0  0  0  0  0
   35.6890   38.6090   32.3310 C   0  0  0  0  0  0  0  0  0  0  0  0
   38.0360   39.7590   33.1140 O   0  0  0  0  0  0  0  0  0  0  0  0
   33.6420   37.3560   33.1250 N   0  0  0  0  0  0  0  0  0  0  0  0
   40.5750   41.1090   29.3470 C   0  0  0  0  0  0  0  0  0  0  0  0
   35.2290   37.1340   34.7110 C   0  0  0  0  0  0  0  0  0  0  0  0
   32.8990   36.7140   34.2020 N   0  0  0  0  0  0  0  0  0  0  0  0
   34.1080   36.6010   35.2500 C   0  0  0  0  0  0  0  0  0  0  0  0
   39.1910   41.0650   29.2740 C   0  0  0  0  0  0  0  0  0  0  0  0
   38.3550   40.1360   30.1460 C   0  0  0  0  0  0  0  0  0  0  0  0
   39.0440   38.9310   30.7630 C   0  0  0  0  0  0  0  0  0  0  0  0
   35.0010   37.5800   33.5310 C   0  0  0  0  0  0  0  0  0  0  0  0
   37.2010   38.6670   32.6540 C   0  0  0  0  0  0  0  0  0  0  0  0
   37.8650   38.1460   31.2700 C   0  0  0  0  0  0  0  0  0  0  0  0
  2  5  1  0
  3 14  1  0
  3 13  1  0
  5 13  1  0
  5  8  1  0
  7  9  1  0
  8  9  2  0
 10  6  1  0
 10 11  1  0
 11  1  1  0
 11 12  1  0
 12 15  1  0
 13  7  2  0
 14  4  1  0
 15 14  1  0
M  END
$$$$

     RDKit          3D

 15 15  0  0  0  0  0  0  0  0999 V2000
   39.0340   42.3570   26.7970 N   0  0  0  0  0  0  0  0  0  0  0  0
   35.1610   41.9900   25.4280 C   0  0  0  0  0  0  0  0  0  0  0  0
   40.5700   43.9650   27.1250 C   0  0  0  0  0  0  0  0  0  0  0  0
   37.7920   40.6260   28.0650 C   0  0  0  0  0  0  0  0  0  0  0  0
   38.6030   38.5390   29.0250 N   0  0  0  0  0  0  0  0  0  0  0  0
   36.2730   43.7600   26.8960 N   0  0  0  0  0  0  0  0  0  0  0  0
   38.6850   39.4000   27.8300 C   0  0  0  0  0  0  0  0  0  0  0  0
   41.3740   44.7530   27.8000 O   0  0  0  0  0  0  0  0  0  0  0  0
   37.8650   41.4640   26.8240 C   0  0  0  0  0  0  0  0  0  0  0  0
   40.0580   42.2180   25.8130 N   0  0  0  0  0  0  0  0  0  0  0  0
   34.0260   41.3920   26.0100 C   0  0  0  0  0  0  0  0  0  0  0  0
   35.0290   42.4450   24.3690 O   0  0  0  0  0  0  0  0  0  0  0  0
   41.0940   43.1560   25.9900 C   0  0  0  0  0  0  0  0  0  0  0  0
   39.1290   43.7080   27.4450 C   0  0  0  0  0  0  0  0  0  0  0  0
   36.6300   42.4730   26.1800 S   0  0  0  0  0  0  0  0  0  0  0  0
  1  9  1  0
  1 14  1  0
  2 11  1  0
  2 15  1  0
  3 14  1  0
  3  8  1  0
  7  4  1  0
  7  5  1  0
  9  4  1  0
 10 13  1  0
 10  1  1  0
 12  2  2  0
 13  3  1  0
 15  9  1  0
 15  6  2  0
M  END
$$$$
