
     RDKit          3D

 11 11  0  0  0  0  0  0  0  0999 V2000
   37.1720   39.1960   23.0930 C   0  0  0  0  0  0  0  0  0  0  0  0
   37.2230   39.7310   20.6600 N   0  0  0  0  0  0  0  0  0  0  0  0
   37.5410   37.7510   22.9000 C   0  0  0  0  0  0  0  0  0  0  0  0
   37.6510   42.3650   23.4890 C   0  0  0  0  0  0  0  0  0  0  0  0
   37.6810   43.6610   22.9300 O   0  0  0  0  0  0  0  0  0  0  0  0
   36.9380   42.1560   24.7200 O   0  0  0  0  0  0  0  0  0  0  0  0
   37.2080   41.8700   22.5430 C   0  0  0  0  0  0  0  0  0  0  0  0
   37.6230   40.2480   22.0730 C   0  0  0  0  0  0  0  0  0  0  0  0
   38.1980   37.3100   21.3480 S   0  0  0  0  0  0  0  0  0  0  0  0
   39.0430   41.5870   23.3340 C   0  0  0  0  0  0  0  0  0  0  0  0
   38.9610   40.5350   22.2600 O   0  0  0  0  0  0  0  0  0  0  0  0
  3  1  2  3
  4  6  1  0
  5  4  1  0
  7  4  1  0
  8  2  1  0
  8 11  1  0
  8  7  1  0
  8  1  1  0
  9  3  1  0
 10  4  1  0
 11 10  1  0
M  END
$$$$

     RDKit          3D

 13 13  0  0  0  0  0  0  0  0999 V2000
   38.9460   39.2970   21.5680 P   0  0  0  0  0  0  0  0  0  0  0  0
   38.8490   40.7410   21.8160 O   0  0  0  0  0  0  0  0  0  0  0  0
   38.2540   38.6630   20.4680 O   0  0  0  0  0  0  0  0  0  0  0  0
   34.7830   38.0420   23.5980 C   0  0  0  0  0  0  0  0  0  0  0  0
   40.4350   38.9290   21.6570 O   0  0  0  0  0  0  0  0  0  0  0  0
   37.6380   36.7110   25.6000 N   0  0  0  0  0  0  0  0  0  0  0  0
   38.3010   38.6020   22.8620 O   0  0  0  0  0  0  0  0  0  0  0  0
   37.0260   38.8440   23.3940 C   0  0  0  0  0  0  0  0  0  0  0  0
   36.2110   40.0430   23.4660 C   0  0  0  0  0  0  0  0  0  0  0  0
   34.8050   39.5580   23.4740 C   0  0  0  0  0  0  0  0  0  0  0  0
   34.0150   36.9220   22.4830 Cl  0  0  0  0  0  0  0  0  0  0  0  0
   36.5430   37.5250   25.2460 C   0  0  0  0  0  0  0  0  0  0  0  0
   36.2140   37.6760   23.7790 C   0  0  0  0  0  0  0  0  0  0  0  0
  1  5  1  0
  1  2  1  0
  1  7  1  0
  3  1  2  0
  4 11  1  0
  4 13  1  0
  8  7  1  0
  8  9  1  0
  8 13  1  0
  9 10  1  0
 10  4  1  0
 12  6  1  0
 13 12  1  0
M  END
$$$$

     RDKit          3D

 18 19  0  0  0  0  0  0  0  0999 V2000
   39.0110   39.3630   23.7290 C   0  0  0  0  0  0  0  0  0  0  0  0
   37.6800   39.4340   24.5250 C   0  0  0  0  0  0  0  0  0  0  0  0
   39.9500   40.9550   25.1050 O   0  0  0  0  0  0  0  0  0  0  0  0
   34.5900   35.9090   21.2660 N   0  0  0  0  0  0  0  0  0  0  0  0
   39.9030   38.1990   24.0580 N   0  0  0  0  0  0  0  0  0  0  0  0
   33.3630   36.1960   20.8030 C   0  0  0  0  0  0  0  0  0  0  0  0
   32.6290   37.2270   21.3660 C   0  0  0  0  0  0  0  0  0  0  0  0
   35.1430   36.7120   22.2060 C   0  0  0  0  0  0  0  0  0  0  0  0
   37.2310   39.5970   22.2270 C   0  0  0  0  0  0  0  0  0  0  0  0
   33.2370   38.1280   22.2680 C   0  0  0  0  0  0  0  0  0  0  0  0
   36.9950   37.3750   23.9620 O   0  0  0  0  0  0  0  0  0  0  0  0
   40.4900   41.1650   22.9720 O   0  0  0  0  0  0  0  0  0  0  0  0
   34.5270   37.8810   22.6800 C   0  0  0  0  0  0  0  0  0  0  0  0
   37.1830   40.7180   25.1050 N   0  0  0  0  0  0  0  0  0  0  0  0
   36.7490   38.7680   23.5130 C   0  0  0  0  0  0  0  0  0  0  0  0
   39.8230   40.6390   23.9100 C   0  0  0  0  0  0  0  0  0  0  0  0
   35.1880   38.9270   23.5310 C   0  0  0  0  0  0  0  0  0  0  0  0
   38.6520   39.1000   22.2750 C   0  0  0  0  0  0  0  0  0  0  0  0
  1 16  1  0
  1  5  1  0
  1  2  1  0
  2 14  1  0
  4  8  1  0
  6  4  2  0
  6  7  1  0
  7 10  2  0
  8 13  2  0
  9 18  1  0
  9 15  1  0
 10 13  1  0
 12 16  2  0
 13 17  1  0
 15 17  1  0
 15 11  1  0
 15  2  1  0
 16  3  1  0
 18  1  1  0
M  END
$$$$

     RDKit          3D

 11 10  0  0  0  0  0  0  0  0999 V2000
   34.0760   35.6320   22.4530 O   0  0  0  0  0  0  0  0  0  0  0  0
   33.6890   39.9780   21.7690 O   0  0  0  0  0  0  0  0  0  0  0  0
   35.0690   36.7660   19.7510 C   0  0  0  0  0  0  0  0  0  0  0  0
   38.0930   37.8330   24.6000 S   0  0  0  0  0  0  0  0  0  0  0  0
   36.3170   37.4270   24.7920 C   0  0  0  0  0  0  0  0  0  0  0  0
   34.9900   35.5290   19.1620 O   0  0  0  0  0  0  0  0  0  0  0  0
   34.7430   38.1650   23.0450 N   0  0  0  0  0  0  0  0  0  0  0  0
   35.6110   36.7130   21.2070 C   0  0  0  0  0  0  0  0  0  0  0  0
   34.3170   37.0520   22.0480 C   0  0  0  0  0  0  0  0  0  0  0  0
   35.7620   38.6830   24.1200 C   0  0  0  0  0  0  0  0  0  0  0  0
   33.5440   39.1080   22.9680 C   0  0  0  0  0  0  0  0  0  0  0  0
  2 11  1  0
  3  8  1  0
  4  5  1  0
  6  3  1  0
  7 10  1  0
  8  9  1  0
  9  1  1  0
  9  7  1  0
 10  5  1  0
 11  7  1  0
M  END
$$$$

     RDKit          3D

 16 16  0  0  0  0  0  0  0  0999 V2000
   40.6840   39.7630   24.0350 N   0  0  0  0  0  0  0  0  0  0  0  0
   39.6510   38.9190   24.4760 C   0  0  0  0  0  0  0  0  0  0  0  0
   35.3350   38.4050   25.5080 O   0  0  0  0  0  0  0  0  0  0  0  0
   40.0880   40.7890   27.2200 C   0  0  0  0  0  0  0  0  0  0  0  0
   38.3790   35.7890   27.4150 O   0  0  0  0  0  0  0  0  0  0  0  0
   40.7840   39.5700   26.6010 O   0  0  0  0  0  0  0  0  0  0  0  0
   38.7560   38.2900   26.6890 C   0  0  0  0  0  0  0  0  0  0  0  0
   37.6030   37.6870   26.1950 C   0  0  0  0  0  0  0  0  0  0  0  0
   37.1920   36.4050   26.8750 C   0  0  0  0  0  0  0  0  0  0  0  0
   36.4030   40.3010   23.4140 C   0  0  0  0  0  0  0  0  0  0  0  0
   36.5950   38.3960   25.2690 C   0  0  0  0  0  0  0  0  0  0  0  0
   36.6520   40.1460   22.0000 O   0  0  0  0  0  0  0  0  0  0  0  0
   37.1010   39.1420   24.0930 C   0  0  0  0  0  0  0  0  0  0  0  0
   40.0300   38.5480   25.9400 C   0  0  0  0  0  0  0  0  0  0  0  0
   38.3980   38.8470   23.5400 C   0  0  0  0  0  0  0  0  0  0  0  0
   36.9980   41.4860   24.2140 C   0  0  0  0  0  0  0  0  0  0  0  0
  2  1  1  0
  2 14  1  0
  6  4  1  0
  8  7  1  0
  8  9  1  0
  9  5  1  0
 10 16  1  0
 11  3  2  0
 11  8  1  0
 12 10  1  0
 13 10  1  0
 13 11  1  0
 14  6  1  0
 14  7  1  0
 15 13  1  0
 15  2  1  0
M  END
$$$$

     RDKit          3D

  7  6  0  0  0  0  0  0  0  0999 V2000
   38.2210   40.7860   20.6030 C   0  0  0  0  0  0  0  0  0  0  0  0
   37.9900   38.8430   21.9900 C   0  0  0  0  0  0  0  0  0  0  0  0
   37.2740   40.3860   25.2130 C   0  0  0  0  0  0  0  0  0  0  0  0
   38.0380   40.4200   21.9650 C   0  0  0  0  0  0  0  0  0  0  0  0
   38.0400   40.3110   24.3250 N   0  0  0  0  0  0  0  0  0  0  0  0
   37.5500   41.0690   23.1070 C   0  0  0  0  0  0  0  0  0  0  0  0
   39.3600   38.4170   22.1260 O   0  0  0  0  0  0  0  0  0  0  0  0
  2  7  1  0
  4  1  1  0
  4  2  1  0
  4  6  1  0
  5  3  1  0
  6  5  1  0
M  END
$$$$

     RDKit          3D

 20 21  0  0  0  0  0  0  0  0999 V2000
   43.9590   40.7770   23.2600 O   0  0  0  0  0  0  0  0  0  0  0  0
   34.4010   36.7090   21.9120 C   0  0  0  0  0  0  0  0  0  0  0  0
   42.5000   38.6730   21.9160 Br  0  0  0  0  0  0  0  0  0  0  0  0
   32.3770   37.9490   21.5920 C   0  0  0  0  0  0  0  0  0  0  0  0
   38.0090   39.2500   24.4480 C   0  0  0  0  0  0  0  0  0  0  0  0
   42.6120   40.8240   23.6500 C   0  0  0  0  0  0  0  0  0  0  0  0
   36.4190   37.2880   23.1010 C   0  0  0  0  0  0  0  0  0  0  0  0
   37.2780   39.4440   22.1390 C   0  0  0  0  0  0  0  0  0  0  0  0
   34.9140   37.5760   22.8840 C   0  0  0  0  0  0  0  0  0  0  0  0
   40.9440   41.6760   24.9820 C   0  0  0  0  0  0  0  0  0  0  0  0
   36.9530   39.7390   23.5390 N   0  0  0  0  0  0  0  0  0  0  0  0
   40.3710   39.3850   23.3250 C   0  0  0  0  0  0  0  0  0  0  0  0
   42.1720   41.6940   24.4390 N   0  0  0  0  0  0  0  0  0  0  0  0
   32.7760   38.8660   22.5730 C   0  0  0  0  0  0  0  0  0  0  0  0
   39.7690   41.0000   24.9720 C   0  0  0  0  0  0  0  0  0  0  0  0
   37.1810   37.9350   21.9190 C   0  0  0  0  0  0  0  0  0  0  0  0
   34.0230   38.6730   23.2140 C   0  0  0  0  0  0  0  0  0  0  0  0
   39.3890   39.8970   24.1980 C   0  0  0  0  0  0  0  0  0  0  0  0
   33.2530   36.9480   21.2210 C   0  0  0  0  0  0  0  0  0  0  0  0
   41.6420   39.8350   23.2010 C   0  0  0  0  0  0  0  0  0  0  0  0
  1  6  2  0
  2  9  1  0
  3 20  1  0
  4 14  2  0
  6 13  1  0
  8 11  1  0
  9  7  1  0
  9 17  2  0
 11  5  1  0
 12 18  1  0
 13 10  2  0
 14 17  1  0
 15 10  1  0
 16  8  1  0
 16  7  1  0
 18  5  1  0
 18 15  2  0
 19  4  1  0
 19  2  2  0
 20 12  2  0
 20  6  1  0
M  END
$$$$

     RDKit          3D

 15 14  0  0  0  0  0  0  0  0999 V2000
   38.4430   41.4750   24.6490 P   0  0  0  0  0  0  0  0  0  0  0  0
   39.0670   42.3910   23.6850 O   0  0  0  0  0  0  0  0  0  0  0  0
   38.3500   38.8280   21.2320 O   0  0  0  0  0  0  0  0  0  0  0  0
   37.1340   37.9730   23.3950 C   0  0  0  0  0  0  0  0  0  0  0  0
   38.1150   40.3730   23.5770 O   0  0  0  0  0  0  0  0  0  0  0  0
   37.2050   39.4240   23.9830 C   0  0  0  0  0  0  0  0  0  0  0  0
   37.1870   39.6590   21.1410 C   0  0  0  0  0  0  0  0  0  0  0  0
   35.6970   37.9050   23.4440 C   0  0  0  0  0  0  0  0  0  0  0  0
   35.0580   36.5740   23.4690 C   0  0  0  0  0  0  0  0  0  0  0  0
   37.3800   39.0590   25.2630 O   0  0  0  0  0  0  0  0  0  0  0  0
   39.2110   40.4140   25.5520 O   0  0  0  0  0  0  0  0  0  0  0  0
   34.8940   35.8560   22.1350 C   0  0  0  0  0  0  0  0  0  0  0  0
   37.4670   36.7380   23.2390 O   0  0  0  0  0  0  0  0  0  0  0  0
   35.9220   38.6490   21.7660 S   0  0  0  0  0  0  0  0  0  0  0  0
   37.0980   41.8910   25.1910 O   0  0  0  0  0  0  0  0  0  0  0  0
  1 15  1  0
  1 11  1  0
  2  1  2  0
  4 13  1  0
  4  8  1  0
  4  6  1  0
  5  6  1  0
  5  1  1  0
  6 10  1  0
  7  3  1  0
  7 14  1  0
  8  9  1  0
 12  9  1  0
 14  8  1  0
M  END
$$$$

     RDKit          3D

  8  7  0  0  0  0  0  0  0  0999 V2000
   39.9210   40.6070   24.2440 N   0  0  0  0  0  0  0  0  0  0  0  0
   38.5500   40.4150   23.6770 C   0  0  0  0  0  0  0  0  0  0  0  0
   38.5110   39.5870   22.3580 C   0  0  0  0  0  0  0  0  0  0  0  0
   37.4870   42.2440   22.3290 O   0  0  0  0  0  0  0  0  0  0  0  0
   39.3470   38.4200   22.1380 O   0  0  0  0  0  0  0  0  0  0  0  0
   37.7250   39.7150   24.7600 C   0  0  0  0  0  0  0  0  0  0  0  0
   37.8650   42.6200   24.3990 O   0  0  0  0  0  0  0  0  0  0  0  0
   37.9060   41.8190   23.3550 C   0  0  0  0  0  0  0  0  0  0  0  0
  2  1  1  0
  2  6  1  0
  3  2  1  0
  4  8  2  0
  5  3  1  0
  8  2  1  0
  8  7  1  0
M  END
$$$$

     RDKit          3D

  1  0  0  0  0  0  0  0  0  0999 V2000
   41.6340   36.1500   19.0030 O   0  0  0  0  0  0  0  0  0  0  0  0
M  END
$$$$

     RDKit          3D

 17 17  0  0  0  0  0  0  0  0999 V2000
   37.7160   39.9780   24.4060 C   0  0  0  0  0  0  0  0  0  0  0  0
   38.4430   39.3470   22.6410 C   0  0  0  0  0  0  0  0  0  0  0  0
   40.5000   42.5610   25.8400 O   0  0  0  0  0  0  0  0  0  0  0  0
   40.6080   42.1220   24.2120 P   0  0  0  0  0  0  0  0  0  0  0  0
   40.2590   43.3900   23.3790 O   0  0  0  0  0  0  0  0  0  0  0  0
   35.5630   36.8340   23.1000 C   0  0  0  0  0  0  0  0  0  0  0  0
   39.5310   41.1410   23.9600 O   0  0  0  0  0  0  0  0  0  0  0  0
   37.2290   40.0050   25.3550 O   0  0  0  0  0  0  0  0  0  0  0  0
   35.8920   38.2190   21.2800 O   0  0  0  0  0  0  0  0  0  0  0  0
   40.5520   40.2300   21.9210 O   0  0  0  0  0  0  0  0  0  0  0  0
   37.2660   38.8820   23.4050 C   0  0  0  0  0  0  0  0  0  0  0  0
   36.8010   40.0420   22.7200 O   0  0  0  0  0  0  0  0  0  0  0  0
   36.0170   39.2190   23.3870 C   0  0  0  0  0  0  0  0  0  0  0  0
   42.0970   41.6530   24.1050 O   0  0  0  0  0  0  0  0  0  0  0  0
   34.4240   35.9300   22.5040 C   0  0  0  0  0  0  0  0  0  0  0  0
   39.5010   40.5670   22.7580 C   0  0  0  0  0  0  0  0  0  0  0  0
   35.7160   38.1270   22.5500 C   0  0  0  0  0  0  0  0  0  0  0  0
  1  8  2  0
  2 16  1  0
  4  3  1  0
  5  4  2  0
  7  4  1  0
 10 16  2  0
 11  2  1  0
 11  1  1  0
 12 13  1  0
 12 11  1  0
 13 17  1  0
 13 11  1  0
 14  4  1  0
 15  6  1  0
 16  7  1  0
 17  9  1  0
 17  6  1  0
M  END
$$$$

     RDKit          3D

  9  9  0  0  0  0  0  0  0  0999 V2000
   38.4970   38.8490   22.3450 C   0  0  0  0  0  0  0  0  0  0  0  0
   37.3940   40.6900   23.2590 C   0  0  0  0  0  0  0  0  0  0  0  0
   37.6500   42.8440   24.2490 O   0  0  0  0  0  0  0  0  0  0  0  0
   38.4690   40.3330   24.2140 N   0  0  0  0  0  0  0  0  0  0  0  0
   37.9680   37.9390   24.7450 C   0  0  0  0  0  0  0  0  0  0  0  0
   37.6820   40.0350   21.9800 N   0  0  0  0  0  0  0  0  0  0  0  0
   37.2930   42.1890   23.2270 C   0  0  0  0  0  0  0  0  0  0  0  0
   36.7620   42.6890   22.1310 O   0  0  0  0  0  0  0  0  0  0  0  0
   38.7710   38.9240   23.8610 C   0  0  0  0  0  0  0  0  0  0  0  0
  1  9  1  0
  2  7  1  0
  2  4  1  0
  6  1  1  0
  6  2  1  0
  7  3  1  0
  8  7  2  0
  9  4  1  0
  9  5  1  0
M  END
$$$$

     RDKit          3D

 17 16  0  0  0  0  0  0  0  0999 V2000
   34.3900   36.3380   22.0930 C   0  0  0  0  0  0  0  0  0  0  0  0
   35.6570   38.1700   23.3090 C   0  0  0  0  0  0  0  0  0  0  0  0
   34.0200   35.6260   20.9690 C   0  0  0  0  0  0  0  0  0  0  0  0
   40.1120   41.8030   23.3180 C   0  0  0  0  0  0  0  0  0  0  0  0
   38.3080   40.3220   24.0700 N   0  0  0  0  0  0  0  0  0  0  0  0
   36.0190   39.4590   23.1080 O   0  0  0  0  0  0  0  0  0  0  0  0
   35.3430   37.3580   22.0250 C   0  0  0  0  0  0  0  0  0  0  0  0
   35.1430   37.7190   24.3570 N   0  0  0  0  0  0  0  0  0  0  0  0
   39.7030   40.7710   24.3340 C   0  0  0  0  0  0  0  0  0  0  0  0
   37.7340   37.6090   24.4930 C   0  0  0  0  0  0  0  0  0  0  0  0
   36.0170   37.6400   20.8660 N   0  0  0  0  0  0  0  0  0  0  0  0
   34.4760   35.7460   19.8000 O   0  0  0  0  0  0  0  0  0  0  0  0
   37.6430   39.1600   24.6330 C   0  0  0  0  0  0  0  0  0  0  0  0
   40.5700   39.5350   24.4530 C   0  0  0  0  0  0  0  0  0  0  0  0
   33.0800   34.7300   21.1820 O   0  0  0  0  0  0  0  0  0  0  0  0
   36.9820   39.8210   22.1030 C   0  0  0  0  0  0  0  0  0  0  0  0
   37.9220   40.8320   22.7550 C   0  0  0  0  0  0  0  0  0  0  0  0
  2  8  2  0
  3 15  1  0
  3  1  1  0
  4  9  1  0
  5  9  1  0
  5 13  1  0
  6  2  1  0
  7  1  2  3
  7  2  1  0
  9 14  1  0
 10 13  1  0
 11  7  1  0
 12  3  2  0
 16 17  1  0
 16  6  1  0
 17  5  1  0
M  END
$$$$

     RDKit          3D

 13 12  0  0  0  0  0  0  0  0999 V2000
   35.9050   38.7860   23.8780 C   0  0  0  0  0  0  0  0  0  0  0  0
   37.7170   39.1210   22.1380 C   0  0  0  0  0  0  0  0  0  0  0  0
   36.7130   40.3770   25.4790 O   0  0  0  0  0  0  0  0  0  0  0  0
   35.9630   37.6220   22.8660 C   0  0  0  0  0  0  0  0  0  0  0  0
   37.8410   40.6760   22.8080 S   0  0  0  0  0  0  0  0  0  0  0  0
   39.9410   39.9300   22.0380 O   0  0  0  0  0  0  0  0  0  0  0  0
   36.3440   38.2040   20.3690 O   0  0  0  0  0  0  0  0  0  0  0  0
   36.7930   37.9810   21.6090 C   0  0  0  0  0  0  0  0  0  0  0  0
   39.0360   38.9600   21.4150 C   0  0  0  0  0  0  0  0  0  0  0  0
   35.1510   39.8660   23.3290 O   0  0  0  0  0  0  0  0  0  0  0  0
   34.5740   37.0590   22.4520 C   0  0  0  0  0  0  0  0  0  0  0  0
   37.0940   39.3170   24.7400 C   0  0  0  0  0  0  0  0  0  0  0  0
   34.7640   35.9160   21.5900 O   0  0  0  0  0  0  0  0  0  0  0  0
  1 10  1  0
  1 12  1  0
  2  5  2  0
  4 11  1  0
  4  1  1  0
  8  7  1  0
  8  2  1  0
  8  4  1  0
  9  6  1  0
  9  2  1  0
 12  3  1  0
 13 11  1  0
M  END
$$$$

     RDKit          3D

 14 14  0  0  0  0  0  0  0  0999 V2000
   33.7820   35.5710   22.0820 N   0  0  0  0  0  0  0  0  0  0  0  0
   40.6040   40.3470   24.4670 O   0  0  0  0  0  0  0  0  0  0  0  0
   40.8360   38.8470   22.7360 C   0  0  0  0  0  0  0  0  0  0  0  0
   32.1140   37.1720   22.1480 C   0  0  0  0  0  0  0  0  0  0  0  0
   35.9550   37.3900   22.7140 C   0  0  0  0  0  0  0  0  0  0  0  0
   34.1560   39.0340   22.8380 C   0  0  0  0  0  0  0  0  0  0  0  0
   38.6660   39.6370   23.6570 N   0  0  0  0  0  0  0  0  0  0  0  0
   37.9630   38.3830   23.9120 C   0  0  0  0  0  0  0  0  0  0  0  0
   31.8470   38.5090   22.3950 C   0  0  0  0  0  0  0  0  0  0  0  0
   36.5360   38.5650   23.4510 C   0  0  0  0  0  0  0  0  0  0  0  0
   34.4910   37.7010   22.6000 C   0  0  0  0  0  0  0  0  0  0  0  0
   33.3970   36.6990   22.2970 C   0  0  0  0  0  0  0  0  0  0  0  0
   40.0070   39.6890   23.6270 C   0  0  0  0  0  0  0  0  0  0  0  0
   32.8390   39.4150   22.7050 C   0  0  0  0  0  0  0  0  0  0  0  0
  1 12  1  0
  3 13  1  0
  4 12  2  0
  4  9  1  0
  5 10  1  0
  7  8  1  0
  9 14  2  0
 10  8  1  0
 11  5  1  0
 11  6  2  0
 12 11  1  0
 13  7  1  0
 13  2  2  0
 14  6  1  0
M  END
$$$$

     RDKit          3D

 10  9  0  0  0  0  0  0  0  0999 V2000
   35.1210   35.8400   23.4750 O   0  0  0  0  0  0  0  0  0  0  0  0
   35.5450   37.0810   23.5380 C   0  0  0  0  0  0  0  0  0  0  0  0
   36.4570   40.3200   23.3270 O   0  0  0  0  0  0  0  0  0  0  0  0
   35.7310   38.3320   21.4040 C   0  0  0  0  0  0  0  0  0  0  0  0
   37.5920   39.7610   23.5300 C   0  0  0  0  0  0  0  0  0  0  0  0
   36.5560   37.5810   22.4640 C   0  0  0  0  0  0  0  0  0  0  0  0
   37.8060   38.2900   23.1570 C   0  0  0  0  0  0  0  0  0  0  0  0
   35.0090   37.8710   24.3520 O   0  0  0  0  0  0  0  0  0  0  0  0
   34.2820   37.2910   21.0250 S   0  0  0  0  0  0  0  0  0  0  0  0
   38.5990   40.4100   24.0170 O   0  0  0  0  0  0  0  0  0  0  0  0
  1  2  2  0
  2  8  1  0
  3  5  2  0
  5 10  1  0
  6  4  1  0
  6  7  1  0
  6  2  1  0
  7  5  1  0
  9  4  1  0
M  END
$$$$

     RDKit          3D

  7  7  0  0  0  0  0  0  0  0999 V2000
   36.8000   38.9950   21.8430 C   0  0  0  0  0  0  0  0  0  0  0  0
   38.1130   38.9380   24.0990 C   0  0  0  0  0  0  0  0  0  0  0  0
   38.4110   37.8570   23.4030 C   0  0  0  0  0  0  0  0  0  0  0  0
   35.9800   38.9520   20.5970 C   0  0  0  0  0  0  0  0  0  0  0  0
   37.3730   40.0190   24.2060 C   0  0  0  0  0  0  0  0  0  0  0  0
   36.7590   40.4020   22.8580 C   0  0  0  0  0  0  0  0  0  0  0  0
   37.7260   38.0440   22.1860 C   0  0  0  0  0  0  0  0  0  0  0  0
  1  7  1  0
  1  6  1  0
  2  5  1  0
  3  2  1  0
  4  1  1  0
  6  5  1  0
  7  3  1  0
M  END
$$$$

     RDKit          3D

  8  7  0  0  0  0  0  0  0  0999 V2000
   37.5740   38.1230   19.6110 O   0  0  0  0  0  0  0  0  0  0  0  0
   38.5200   38.9450   20.5400 P   0  0  0  0  0  0  0  0  0  0  0  0
   36.7190   38.1850   22.1410 C   0  0  0  0  0  0  0  0  0  0  0  0
   39.0390   38.6510   23.0870 N   0  0  0  0  0  0  0  0  0  0  0  0
   34.8380   38.6520   23.5030 C   0  0  0  0  0  0  0  0  0  0  0  0
   40.3340   38.6780   20.6140 O   0  0  0  0  0  0  0  0  0  0  0  0
   35.7070   39.3840   22.3110 C   0  0  0  0  0  0  0  0  0  0  0  0
   37.9060   38.9930   22.2370 C   0  0  0  0  0  0  0  0  0  0  0  0
  1  2  1  0
  2  6  1  0
  2  8  1  0
  3  8  1  0
  3  7  1  0
  7  5  1  0
  8  4  1  0
M  END
$$$$

     RDKit          3D

 15 15  0  0  0  0  0  0  0  0999 V2000
   37.6170   38.8090   20.4090 N   0  0  0  0  0  0  0  0  0  0  0  0
   38.7570   39.7110   23.2050 C   0  0  0  0  0  0  0  0  0  0  0  0
   37.7370   38.5540   18.9770 C   0  0  0  0  0  0  0  0  0  0  0  0
   37.2730   38.2960   21.6200 C   0  0  0  0  0  0  0  0  0  0  0  0
   38.5560   40.2330   20.6630 C   0  0  0  0  0  0  0  0  0  0  0  0
   38.3680   41.0360   22.8550 C   0  0  0  0  0  0  0  0  0  0  0  0
   37.4890   41.1570   25.7140 O   0  0  0  0  0  0  0  0  0  0  0  0
   36.2500   37.2610   21.6490 O   0  0  0  0  0  0  0  0  0  0  0  0
   37.4060   40.7970   21.6140 C   0  0  0  0  0  0  0  0  0  0  0  0
   39.5920   42.2870   24.8900 O   0  0  0  0  0  0  0  0  0  0  0  0
   38.0650   41.8240   24.4390 P   0  0  0  0  0  0  0  0  0  0  0  0
   37.6470   37.8310   24.1450 O   0  0  0  0  0  0  0  0  0  0  0  0
   36.9770   42.7280   23.9670 O   0  0  0  0  0  0  0  0  0  0  0  0
   35.6220   40.8870   21.1820 Br  0  0  0  0  0  0  0  0  0  0  0  0
   37.9630   38.6340   23.0340 C   0  0  0  0  0  0  0  0  0  0  0  0
  1  5  1  0
  1  4  1  0
  3  1  1  0
  4  8  2  0
  4 15  1  0
  5  9  1  0
  6  2  1  0
  6 11  1  0
  9 14  1  0
  9  6  1  0
 11 10  1  0
 11  7  1  0
 13 11  2  0
 15  2  1  0
 15 12  1  0
M  END
$$$$

     RDKit          3D

 10  9  0  0  0  0  0  0  0  0999 V2000
   38.0850   38.8980   21.8110 C   0  0  0  0  0  0  0  0  0  0  0  0
   39.1560   38.5990   21.1570 O   0  0  0  0  0  0  0  0  0  0  0  0
   38.0060   40.3350   22.5620 C   0  0  0  0  0  0  0  0  0  0  0  0
   37.0170   38.1270   21.7920 N   0  0  0  0  0  0  0  0  0  0  0  0
   38.3390   39.5150   24.9460 C   0  0  0  0  0  0  0  0  0  0  0  0
   36.7210   36.4840   19.8150 C   0  0  0  0  0  0  0  0  0  0  0  0
   36.6100   38.0550   20.4220 C   0  0  0  0  0  0  0  0  0  0  0  0
   37.6580   40.5770   24.0860 C   0  0  0  0  0  0  0  0  0  0  0  0
   39.3640   40.8800   22.4760 N   0  0  0  0  0  0  0  0  0  0  0  0
   38.0540   41.9190   24.4300 O   0  0  0  0  0  0  0  0  0  0  0  0
  1  3  1  0
  2  1  2  0
  3  9  1  0
  3  8  1  0
  4  1  1  0
  6  7  1  0
  7  4  1  0
  8 10  1  0
  8  5  1  0
M  END
$$$$
