
     RDKit          3D

 11 11  0  0  0  0  0  0  0  0999 V2000
   38.1810   38.4950   21.4030 O   0  0  0  0  0  0  0  0  0  0  0  0
   38.4140   34.5850   21.2580 C   0  0  0  0  0  0  0  0  0  0  0  0
   39.4680   38.7580   23.1100 O   0  0  0  0  0  0  0  0  0  0  0  0
   38.7000   38.0810   22.4040 C   0  0  0  0  0  0  0  0  0  0  0  0
   39.9260   35.3540   19.4210 C   0  0  0  0  0  0  0  0  0  0  0  0
   39.3570   34.1110   20.1230 C   0  0  0  0  0  0  0  0  0  0  0  0
   40.4120   33.3080   20.6760 O   0  0  0  0  0  0  0  0  0  0  0  0
   39.0950   35.8540   21.5870 N   0  0  0  0  0  0  0  0  0  0  0  0
   38.7210   36.5780   22.8180 C   0  0  0  0  0  0  0  0  0  0  0  0
   40.2230   36.1450   20.6760 C   0  0  0  0  0  0  0  0  0  0  0  0
   37.1890   34.6830   20.5240 O   0  0  0  0  0  0  0  0  0  0  0  0
  1  4  2  0
  2 11  1  0
  2  8  1  0
  4  9  1  0
  4  3  1  0
  5  6  1  0
  5 10  1  0
  6  7  1  0
  6  2  1  0
  8  9  1  0
 10  8  1  0
M  END
$$$$

     RDKit          3D

  8  8  0  0  0  0  0  0  0  0999 V2000
   39.2390   34.9570   21.0010 C   0  0  0  0  0  0  0  0  0  0  0  0
   35.9690   36.6640   19.8680 C   0  0  0  0  0  0  0  0  0  0  0  0
   36.9930   34.1220   20.3410 C   0  0  0  0  0  0  0  0  0  0  0  0
   38.1310   37.5330   21.1940 S   0  0  0  0  0  0  0  0  0  0  0  0
   35.1850   35.5460   19.8140 C   0  0  0  0  0  0  0  0  0  0  0  0
   37.7770   35.1870   20.4740 C   0  0  0  0  0  0  0  0  0  0  0  0
   37.1830   36.4980   19.9950 C   0  0  0  0  0  0  0  0  0  0  0  0
   35.6790   34.2680   19.9190 C   0  0  0  0  0  0  0  0  0  0  0  0
  2  7  1  0
  3  6  1  0
  5  2  2  0
  5  8  1  0
  6  1  1  0
  7  6  2  0
  7  4  1  0
  8  3  2  0
M  END
$$$$

     RDKit          3D

 12 11  0  0  0  0  0  0  0  0999 V2000
   40.0310   37.1800   20.7550 C   0  0  0  0  0  0  0  0  0  0  0  0
   41.2850   37.2460   20.4490 O   0  0  0  0  0  0  0  0  0  0  0  0
   39.8940   38.4830   23.0560 O   0  0  0  0  0  0  0  0  0  0  0  0
   39.0650   37.2300   19.7020 O   0  0  0  0  0  0  0  0  0  0  0  0
   39.1150   33.0910   21.8860 O   0  0  0  0  0  0  0  0  0  0  0  0
   38.3870   34.0950   21.5810 C   0  0  0  0  0  0  0  0  0  0  0  0
   37.2470   34.0450   21.0390 O   0  0  0  0  0  0  0  0  0  0  0  0
   39.6920   37.3260   22.2570 C   0  0  0  0  0  0  0  0  0  0  0  0
   38.2680   39.2920   21.8420 O   0  0  0  0  0  0  0  0  0  0  0  0
   38.2950   36.8130   21.9790 C   0  0  0  0  0  0  0  0  0  0  0  0
   38.8920   35.4160   21.8290 N   0  0  0  0  0  0  0  0  0  0  0  0
   37.4860   38.1030   21.6480 C   0  0  0  0  0  0  0  0  0  0  0  0
  1  8  1  0
  2  1  1  0
  4  1  2  0
  6 11  1  0
  6  5  1  0
  7  6  2  0
  8  3  1  0
 10 12  1  0
 10  8  1  0
 11 10  1  0
 12  9  1  0
M  END
$$$$

     RDKit          3D

 22 24  0  0  0  0  0  0  0  0999 V2000
   39.7020   37.7510   22.4590 C   0  0  0  0  0  0  0  0  0  0  0  0
   38.1250   34.1720   23.8790 C   0  0  0  0  0  0  0  0  0  0  0  0
   38.3510   36.9300   22.5590 C   0  0  0  0  0  0  0  0  0  0  0  0
   34.6580   33.0590   24.5320 C   0  0  0  0  0  0  0  0  0  0  0  0
   41.9670   37.1700   21.2850 C   0  0  0  0  0  0  0  0  0  0  0  0
   40.6050   36.1240   19.8960 C   0  0  0  0  0  0  0  0  0  0  0  0
   34.0110   33.3280   23.2710 C   0  0  0  0  0  0  0  0  0  0  0  0
   43.8720   38.3000   20.5120 C   0  0  0  0  0  0  0  0  0  0  0  0
   41.0070   36.9280   22.4350 C   0  0  0  0  0  0  0  0  0  0  0  0
   40.8450   35.4960   22.4950 O   0  0  0  0  0  0  0  0  0  0  0  0
   44.0630   37.2760   19.6260 N   0  0  0  0  0  0  0  0  0  0  0  0
   38.2120   35.6060   22.0370 N   0  0  0  0  0  0  0  0  0  0  0  0
   43.0090   36.5940   19.3630 C   0  0  0  0  0  0  0  0  0  0  0  0
   35.9250   33.4360   24.3320 C   0  0  0  0  0  0  0  0  0  0  0  0
   41.9090   36.5850   20.1670 N   0  0  0  0  0  0  0  0  0  0  0  0
   37.4270   34.7280   22.9140 C   0  0  0  0  0  0  0  0  0  0  0  0
   34.9490   34.0700   22.4660 C   0  0  0  0  0  0  0  0  0  0  0  0
   36.1470   34.2410   22.9610 C   0  0  0  0  0  0  0  0  0  0  0  0
   32.8640   32.9400   23.0580 O   0  0  0  0  0  0  0  0  0  0  0  0
   42.8870   38.1970   21.4920 C   0  0  0  0  0  0  0  0  0  0  0  0
   34.0540   32.4300   25.5940 O   0  0  0  0  0  0  0  0  0  0  0  0
   37.0890   33.5270   24.9090 C   0  0  0  0  0  0  0  0  0  0  0  0
  1  3  1  0
  2 22  1  0
  4 21  1  0
  5 20  1  0
  5  9  1  0
  6 15  1  0
  7  4  1  0
  8 20  1  0
  9  1  1  0
  9 10  1  0
 11  8  1  0
 12  3  1  0
 13 11  1  0
 13 15  1  0
 14  4  2  0
 14 22  1  0
 15  5  1  0
 16 12  1  0
 16 18  1  0
 16  2  1  0
 17 18  2  0
 17  7  1  0
 18 14  1  0
 19  7  2  0
M  END
$$$$

     RDKit          3D

 25 25  0  0  0  0  0  0  0  0999 V2000
   38.6760   37.6400   24.0890 O   0  0  0  0  0  0  0  0  0  0  0  0
   39.9280   34.2010   21.5890 C   0  0  0  0  0  0  0  0  0  0  0  0
   37.3140   34.4670   24.5830 S   0  0  0  0  0  0  0  0  0  0  0  0
   41.9070   37.8350   28.9820 C   0  0  0  0  0  0  0  0  0  0  0  0
   39.7900   36.7900   24.3710 C   0  0  0  0  0  0  0  0  0  0  0  0
   42.0290   39.6340   26.9500 C   0  0  0  0  0  0  0  0  0  0  0  0
   40.4980   36.4220   22.0580 O   0  0  0  0  0  0  0  0  0  0  0  0
   40.0940   36.8790   32.0610 N   0  0  0  0  0  0  0  0  0  0  0  0
   41.4520   38.2140   30.3690 C   0  0  0  0  0  0  0  0  0  0  0  0
   42.0650   41.0170   26.9780 O   0  0  0  0  0  0  0  0  0  0  0  0
   38.2010   35.0960   23.1220 C   0  0  0  0  0  0  0  0  0  0  0  0
   39.3920   37.5600   33.1780 C   0  0  0  0  0  0  0  0  0  0  0  0
   39.6900   35.4190   22.5130 C   0  0  0  0  0  0  0  0  0  0  0  0
   39.4390   35.4190   23.8940 C   0  0  0  0  0  0  0  0  0  0  0  0
   41.7300   37.6600   25.4010 C   0  0  0  0  0  0  0  0  0  0  0  0
   39.3160   35.5900   31.7930 C   0  0  0  0  0  0  0  0  0  0  0  0
   41.3490   38.9940   25.8700 N   0  0  0  0  0  0  0  0  0  0  0  0
   39.0120   34.4380   20.4110 C   0  0  0  0  0  0  0  0  0  0  0  0
   41.0600   33.7110   21.1280 O   0  0  0  0  0  0  0  0  0  0  0  0
   40.1550   37.4930   30.6850 C   0  0  0  0  0  0  0  0  0  0  0  0
   41.9240   39.0930   28.3200 N   0  0  0  0  0  0  0  0  0  0  0  0
   41.3990   36.5800   32.6140 C   0  0  0  0  0  0  0  0  0  0  0  0
   41.1070   37.4120   24.0590 C   0  0  0  0  0  0  0  0  0  0  0  0
   39.8250   34.6580   19.5350 O   0  0  0  0  0  0  0  0  0  0  0  0
   38.2530   35.0210   25.8560 C   0  0  0  0  0  0  0  0  0  0  0  0
  2 19  1  0
  2 13  1  0
  3 25  1  0
  4  9  1  0
  5  1  1  0
  6 10  2  0
  6 21  1  0
  8 22  1  0
  8 12  1  0
  9 20  1  0
 11 14  1  0
 11  3  1  0
 13  7  1  0
 13 11  1  0
 13 14  1  0
 14  5  1  0
 15 17  1  0
 16  8  1  0
 17  6  1  0
 18  2  1  0
 20  8  1  0
 21  4  1  0
 23  5  1  0
 23 15  1  0
 24 18  1  0
M  END
$$$$

     RDKit          3D

  5  4  0  0  0  0  0  0  0  0999 V2000
   37.3270   35.7000   21.0740 O   0  0  0  0  0  0  0  0  0  0  0  0
   34.2890   36.8350   19.9420 Br  0  0  0  0  0  0  0  0  0  0  0  0
   35.4020   35.3990   19.4570 C   0  0  0  0  0  0  0  0  0  0  0  0
   36.6350   35.0950   19.8470 C   0  0  0  0  0  0  0  0  0  0  0  0
   37.3790   34.2500   19.0500 O   0  0  0  0  0  0  0  0  0  0  0  0
  3  4  1  0
  3  2  1  0
  4  1  1  0
  5  4  2  0
M  END
$$$$

     RDKit          3D

 11 10  0  0  0  0  0  0  0  0999 V2000
   39.8360   33.6280   22.6500 N   0  0  0  0  0  0  0  0  0  0  0  0
   40.2300   34.7900   21.8430 C   0  0  0  0  0  0  0  0  0  0  0  0
   39.1640   35.8530   22.1190 C   0  0  0  0  0  0  0  0  0  0  0  0
   39.0120   36.9630   19.8600 C   0  0  0  0  0  0  0  0  0  0  0  0
   35.1850   38.0190   18.5000 S   0  0  0  0  0  0  0  0  0  0  0  0
   40.1310   34.4240   20.3790 C   0  0  0  0  0  0  0  0  0  0  0  0
   35.9760   37.0390   19.7240 C   0  0  0  0  0  0  0  0  0  0  0  0
   36.8680   37.9320   20.6300 C   0  0  0  0  0  0  0  0  0  0  0  0
   40.1540   35.9120   19.5040 S   0  0  0  0  0  0  0  0  0  0  0  0
   38.2750   37.9470   20.1380 N   0  0  0  0  0  0  0  0  0  0  0  0
   37.7900   35.8670   21.4470 C   0  0  0  0  0  0  0  0  0  0  0  0
  2  3  1  0
  2  1  1  0
  4 10  1  0
  5  7  1  0
  6  2  1  0
  7  8  1  0
  9  4  1  0
  9  6  1  0
 10  8  1  0
 11  3  1  0
M  END
$$$$

     RDKit          3D

 12 12  0  0  0  0  0  0  0  0999 V2000
   39.7510   38.0680   19.5150 O   0  0  0  0  0  0  0  0  0  0  0  0
   38.1490   35.4440   19.0470 O   0  0  0  0  0  0  0  0  0  0  0  0
   38.0780   39.3350   22.5170 O   0  0  0  0  0  0  0  0  0  0  0  0
   38.1520   38.2130   21.6050 C   0  0  0  0  0  0  0  0  0  0  0  0
   39.3730   38.4170   20.4970 C   0  0  0  0  0  0  0  0  0  0  0  0
   38.0660   35.9180   20.1460 C   0  0  0  0  0  0  0  0  0  0  0  0
   38.7540   34.4740   22.0550 C   0  0  0  0  0  0  0  0  0  0  0  0
   38.0570   35.4730   21.2970 O   0  0  0  0  0  0  0  0  0  0  0  0
   36.0680   37.1160   20.8640 O   0  0  0  0  0  0  0  0  0  0  0  0
   39.5020   37.9110   21.8320 C   0  0  0  0  0  0  0  0  0  0  0  0
   37.3790   37.2970   20.4710 C   0  0  0  0  0  0  0  0  0  0  0  0
   40.3590   37.7180   22.8780 O   0  0  0  0  0  0  0  0  0  0  0  0
  2  6  2  0
  4 10  1  0
  4  3  1  0
  5  1  1  0
  5  4  1  0
  5 10  1  0
  6 11  1  0
  6  8  1  0
  8  7  1  0
 10 12  1  0
 11  9  1  0
 11  4  1  0
M  END
$$$$

     RDKit          3D

 16 16  0  0  0  0  0  0  0  0999 V2000
   37.6720   38.0490   23.1020 O   0  0  0  0  0  0  0  0  0  0  0  0
   38.0220   35.1420   23.4610 C   0  0  0  0  0  0  0  0  0  0  0  0
   37.6330   37.7130   21.5600 C   0  0  0  0  0  0  0  0  0  0  0  0
   35.9920   35.4420   21.0690 N   0  0  0  0  0  0  0  0  0  0  0  0
   37.4210   35.1900   21.0490 C   0  0  0  0  0  0  0  0  0  0  0  0
   36.8470   35.9770   23.7640 C   0  0  0  0  0  0  0  0  0  0  0  0
   32.6540   33.7940   21.2190 C   0  0  0  0  0  0  0  0  0  0  0  0
   38.2530   36.5550   23.6920 C   0  0  0  0  0  0  0  0  0  0  0  0
   39.8300   36.1310   21.4370 O   0  0  0  0  0  0  0  0  0  0  0  0
   33.5450   34.4710   20.2060 C   0  0  0  0  0  0  0  0  0  0  0  0
   38.4020   36.2280   21.2670 C   0  0  0  0  0  0  0  0  0  0  0  0
   38.4850   38.6860   20.7070 C   0  0  0  0  0  0  0  0  0  0  0  0
   34.6630   35.0350   20.2810 C   0  0  0  0  0  0  0  0  0  0  0  0
   31.6580   32.9370   21.0250 O   0  0  0  0  0  0  0  0  0  0  0  0
   37.8900   33.8790   21.0150 O   0  0  0  0  0  0  0  0  0  0  0  0
   33.3770   34.2000   18.7410 C   0  0  0  0  0  0  0  0  0  0  0  0
  1  8  1  0
  2  8  1  0
  2  6  1  0
  3 12  1  0
  3  1  1  0
  5  4  1  0
  5 11  1  0
  8  6  1  0
 10 13  1  0
 10  7  2  3
 11  9  1  0
 11  3  1  0
 13  4  1  0
 14  7  1  0
 15  5  2  0
 16 10  1  0
M  END
$$$$

     RDKit          3D

 19 18  0  0  0  0  0  0  0  0999 V2000
   37.4320   36.3540   22.3840 C   0  0  0  0  0  0  0  0  0  0  0  0
   39.4430   36.0280   20.2670 O   0  0  0  0  0  0  0  0  0  0  0  0
   34.1320   34.3570   21.4240 C   0  0  0  0  0  0  0  0  0  0  0  0
   40.8720   35.4610   22.0770 O   0  0  0  0  0  0  0  0  0  0  0  0
   37.0730   34.1650   24.3090 C   0  0  0  0  0  0  0  0  0  0  0  0
   36.9310   34.4780   18.5030 C   0  0  0  0  0  0  0  0  0  0  0  0
   38.2790   35.2390   22.4880 C   0  0  0  0  0  0  0  0  0  0  0  0
   32.6390   34.8730   19.2820 C   0  0  0  0  0  0  0  0  0  0  0  0
   35.0330   35.8840   19.3630 C   0  0  0  0  0  0  0  0  0  0  0  0
   39.6070   35.0990   21.2980 P   0  0  0  0  0  0  0  0  0  0  0  0
   35.6760   34.5070   23.8150 C   0  0  0  0  0  0  0  0  0  0  0  0
   37.9970   34.1650   23.2390 N   0  0  0  0  0  0  0  0  0  0  0  0
   35.4980   34.7810   18.5030 N   0  0  0  0  0  0  0  0  0  0  0  0
   31.4250   34.8590   20.0570 C   0  0  0  0  0  0  0  0  0  0  0  0
   33.9450   35.0310   20.0810 C   0  0  0  0  0  0  0  0  0  0  0  0
   37.2260   34.1140   19.9500 C   0  0  0  0  0  0  0  0  0  0  0  0
   33.2340   33.9310   22.1250 O   0  0  0  0  0  0  0  0  0  0  0  0
   35.5270   34.1670   22.3340 N   0  0  0  0  0  0  0  0  0  0  0  0
   40.0340   33.7050   21.1030 O   0  0  0  0  0  0  0  0  0  0  0  0
  2 10  2  0
  3 17  2  0
  3 18  1  0
  6 13  1  0
  6 16  1  0
  7  1  1  0
  7 12  1  0
  8 14  1  0
  9 15  1  0
 10  4  1  0
 10  7  1  0
 11  5  1  0
 12  5  1  0
 13  9  1  0
 15  8  1  0
 15  3  1  0
 18 11  1  0
 19 10  1  0
M  END
$$$$

     RDKit          3D

  7  6  0  0  0  0  0  0  0  0999 V2000
   39.3530   35.2280   21.7340 C   0  0  0  0  0  0  0  0  0  0  0  0
   38.8160   37.7600   20.0360 C   0  0  0  0  0  0  0  0  0  0  0  0
   37.2090   34.4780   20.4680 C   0  0  0  0  0  0  0  0  0  0  0  0
   37.8960   36.9260   20.7640 N   0  0  0  0  0  0  0  0  0  0  0  0
   36.9270   37.6330   21.6190 C   0  0  0  0  0  0  0  0  0  0  0  0
   36.2590   34.9070   19.6420 O   0  0  0  0  0  0  0  0  0  0  0  0
   38.1210   35.6110   20.9420 C   0  0  0  0  0  0  0  0  0  0  0  0
  2  4  1  0
  3  7  1  0
  4  7  1  0
  4  5  1  0
  6  3  1  0
  7  1  1  0
M  END
$$$$

     RDKit          3D

  9  9  0  0  0  0  0  0  0  0999 V2000
   34.8700   33.3260   19.2760 O   0  0  0  0  0  0  0  0  0  0  0  0
   35.7650   36.8020   20.3600 C   0  0  0  0  0  0  0  0  0  0  0  0
   34.7890   35.7540   19.8250 C   0  0  0  0  0  0  0  0  0  0  0  0
   37.7680   35.2450   20.1400 C   0  0  0  0  0  0  0  0  0  0  0  0
   37.1290   36.5310   20.6510 C   0  0  0  0  0  0  0  0  0  0  0  0
   39.0340   35.0320   20.2020 O   0  0  0  0  0  0  0  0  0  0  0  0
   36.7470   34.1960   19.5450 C   0  0  0  0  0  0  0  0  0  0  0  0
   37.8160   37.3980   21.3300 O   0  0  0  0  0  0  0  0  0  0  0  0
   35.5270   34.3960   19.5760 C   0  0  0  0  0  0  0  0  0  0  0  0
  1  9  1  0
  2  5  1  0
  3  2  2  0
  4  6  1  0
  4  5  2  0
  5  8  1  0
  7  9  2  0
  7  4  1  0
  9  3  1  0
M  END
$$$$

     RDKit          3D

 14 14  0  0  0  0  0  0  0  0999 V2000
   39.7490   40.1650   22.2900 C   0  0  0  0  0  0  0  0  0  0  0  0
   38.5180   38.0990   19.0720 N   0  0  0  0  0  0  0  0  0  0  0  0
   39.3840   40.2270   23.3180 O   0  0  0  0  0  0  0  0  0  0  0  0
   41.0600   41.1130   22.3940 O   0  0  0  0  0  0  0  0  0  0  0  0
   37.5230   38.1920   21.4710 C   0  0  0  0  0  0  0  0  0  0  0  0
   39.2090   39.7360   21.0990 C   0  0  0  0  0  0  0  0  0  0  0  0
   37.7770   37.3230   20.0500 C   0  0  0  0  0  0  0  0  0  0  0  0
   37.7750   39.3380   21.7130 C   0  0  0  0  0  0  0  0  0  0  0  0
   36.2760   34.4420   19.9640 C   0  0  0  0  0  0  0  0  0  0  0  0
   36.9040   33.5130   20.4830 N   0  0  0  0  0  0  0  0  0  0  0  0
   36.0250   35.7320   20.5310 F   0  0  0  0  0  0  0  0  0  0  0  0
   37.3620   35.0970   18.9580 C   0  0  0  0  0  0  0  0  0  0  0  0
   38.1630   35.8050   19.6310 C   0  0  0  0  0  0  0  0  0  0  0  0
   38.8110   39.4690   19.4220 C   0  0  0  0  0  0  0  0  0  0  0  0
  1  4  2  0
  1  3  1  0
  2 14  1  0
  2  7  1  0
  5  8  1  0
  6  8  1  0
  6  1  1  0
  7 13  1  0
  7  5  1  0
  9 10  1  0
  9 11  1  0
 12 13  1  0
 12  9  1  0
 14  6  1  0
M  END
$$$$

     RDKit          3D

  9  9  0  0  0  0  0  0  0  0999 V2000
   36.4640   36.1410   19.3200 C   0  0  0  0  0  0  0  0  0  0  0  0
   37.5840   37.1800   21.2180 C   0  0  0  0  0  0  0  0  0  0  0  0
   37.0110   34.0500   20.4550 N   0  0  0  0  0  0  0  0  0  0  0  0
   37.7760   34.1910   19.2530 C   0  0  0  0  0  0  0  0  0  0  0  0
   35.9490   34.8230   19.9470 C   0  0  0  0  0  0  0  0  0  0  0  0
   37.1650   37.5830   22.0790 O   0  0  0  0  0  0  0  0  0  0  0  0
   38.9810   36.2290   19.2520 C   0  0  0  0  0  0  0  0  0  0  0  0
   39.1130   34.7250   19.3510 C   0  0  0  0  0  0  0  0  0  0  0  0
   37.7630   36.6450   19.9980 C   0  0  0  0  0  0  0  0  0  0  0  0
  1  5  1  0
  1  9  1  0
  2  6  2  0
  4  8  1  0
  4  3  1  0
  5  3  1  0
  7  8  1  0
  7  9  1  0
  9  2  2  0
M  END
$$$$

     RDKit          3D

  9  9  0  0  0  0  0  0  0  0999 V2000
   38.7510   34.3940   20.4900 O   0  0  0  0  0  0  0  0  0  0  0  0
   40.1320   34.7970   20.3230 C   0  0  0  0  0  0  0  0  0  0  0  0
   35.5090   36.8190   20.4860 C   0  0  0  0  0  0  0  0  0  0  0  0
   36.5350   34.7520   19.9570 C   0  0  0  0  0  0  0  0  0  0  0  0
   35.3570   35.5850   19.9570 N   0  0  0  0  0  0  0  0  0  0  0  0
   37.8530   36.5400   21.0220 C   0  0  0  0  0  0  0  0  0  0  0  0
   37.6900   35.2820   20.5010 C   0  0  0  0  0  0  0  0  0  0  0  0
   36.4390   33.5410   19.2890 O   0  0  0  0  0  0  0  0  0  0  0  0
   36.6010   37.3120   20.9200 N   0  0  0  0  0  0  0  0  0  0  0  0
  1  7  1  0
  2  1  1  0
  3  9  2  0
  4  5  1  0
  4  7  1  0
  5  3  1  0
  7  6  2  0
  8  4  2  0
  9  6  1  0
M  END
$$$$

     RDKit          3D

 16 15  0  0  0  0  0  0  0  0999 V2000
   36.2320   35.8360   19.5110 O   0  0  0  0  0  0  0  0  0  0  0  0
   37.1790   34.3660   23.2420 O   0  0  0  0  0  0  0  0  0  0  0  0
   31.9690   33.6370   20.7090 C   0  0  0  0  0  0  0  0  0  0  0  0
   37.9100   35.0010   22.1930 C   0  0  0  0  0  0  0  0  0  0  0  0
   35.6900   36.0020   22.3090 O   0  0  0  0  0  0  0  0  0  0  0  0
   34.2200   33.9200   21.7700 N   0  0  0  0  0  0  0  0  0  0  0  0
   36.6720   35.6170   20.6000 C   0  0  0  0  0  0  0  0  0  0  0  0
   39.4240   35.6550   20.0360 O   0  0  0  0  0  0  0  0  0  0  0  0
   31.0550   34.1330   20.0580 O   0  0  0  0  0  0  0  0  0  0  0  0
   33.3770   34.2140   20.5100 C   0  0  0  0  0  0  0  0  0  0  0  0
   37.6340   35.8430   21.0910 C   0  0  0  0  0  0  0  0  0  0  0  0
   35.4080   34.9440   21.5880 C   0  0  0  0  0  0  0  0  0  0  0  0
   34.0100   33.9490   19.1480 O   0  0  0  0  0  0  0  0  0  0  0  0
   38.5130   35.8420   19.8050 C   0  0  0  0  0  0  0  0  0  0  0  0
   39.2160   34.9010   22.0290 C   0  0  0  0  0  0  0  0  0  0  0  0
   31.7500   32.6930   21.7290 O   0  0  0  0  0  0  0  0  0  0  0  0
  1  7  2  0
  3 16  1  0
  4  2  1  0
  7 11  1  0
  7 12  1  0
  9  3  2  0
 10 13  1  0
 10  3  1  0
 10  6  1  0
 11 14  1  0
 11  4  1  0
 12  6  1  0
 12  5  2  0
 14  8  1  0
 15  4  2  0
M  END
$$$$

     RDKit          3D

 26 28  0  0  0  0  0  0  0  0999 V2000
   36.7600   35.1490   17.9050 C   0  0  0  0  0  0  0  0  0  0  0  0
   36.8700   36.3240   23.1990 C   0  0  0  0  0  0  0  0  0  0  0  0
   41.1290   39.0800   24.1140 O   0  0  0  0  0  0  0  0  0  0  0  0
   39.4310   35.2320   24.1420 C   0  0  0  0  0  0  0  0  0  0  0  0
   34.1400   33.7600   21.2640 O   0  0  0  0  0  0  0  0  0  0  0  0
   39.7390   36.5550   23.9450 C   0  0  0  0  0  0  0  0  0  0  0  0
   41.7350   38.0050   24.2410 C   0  0  0  0  0  0  0  0  0  0  0  0
   42.9730   37.9780   24.5570 O   0  0  0  0  0  0  0  0  0  0  0  0
   39.9730   33.5840   19.5650 Cl  0  0  0  0  0  0  0  0  0  0  0  0
   37.0530   35.0720   23.7000 C   0  0  0  0  0  0  0  0  0  0  0  0
   38.1420   33.3010   24.4140 N   0  0  0  0  0  0  0  0  0  0  0  0
   37.5200   37.4960   23.5230 C   0  0  0  0  0  0  0  0  0  0  0  0
   33.5180   36.6510   20.0610 C   0  0  0  0  0  0  0  0  0  0  0  0
   36.0660   34.1260   23.5070 O   0  0  0  0  0  0  0  0  0  0  0  0
   38.0790   34.7850   18.1180 C   0  0  0  0  0  0  0  0  0  0  0  0
   35.9020   35.1490   18.9900 C   0  0  0  0  0  0  0  0  0  0  0  0
   37.6820   34.4750   20.4820 C   0  0  0  0  0  0  0  0  0  0  0  0
   35.7810   36.4450   22.2180 N   0  0  0  0  0  0  0  0  0  0  0  0
   34.0540   35.2620   20.7660 B   0  0  0  0  0  0  0  0  0  0  0  0
   35.4130   35.2660   21.4160 C   0  0  0  0  0  0  0  0  0  0  0  0
   38.8900   37.5650   23.7230 C   0  0  0  0  0  0  0  0  0  0  0  0
   41.0660   36.8070   24.0950 N   0  0  0  0  0  0  0  0  0  0  0  0
   32.5170   35.4620   20.1510 C   0  0  0  0  0  0  0  0  0  0  0  0
   38.5090   34.3710   19.3760 C   0  0  0  0  0  0  0  0  0  0  0  0
   36.3590   34.9320   20.2960 C   0  0  0  0  0  0  0  0  0  0  0  0
   38.2420   34.6400   24.2620 C   0  0  0  0  0  0  0  0  0  0  0  0
  1 15  2  0
  1 16  1  0
  2 12  2  0
  2 10  1  0
  3  7  2  0
  4 26  2  0
  6 22  1  0
  6  4  1  0
  7  8  1  0
 10 14  1  0
 10 26  1  0
 12 21  1  0
 13 23  1  0
 13 19  1  0
 15 24  1  0
 16 25  2  0
 18  2  1  0
 19  5  1  0
 19 20  1  0
 20 18  1  0
 21  6  2  0
 22  7  1  0
 23 19  1  0
 24  9  1  0
 24 17  2  0
 25 17  1  0
 25 20  1  0
 26 11  1  0
M  END
$$$$

     RDKit          3D

 19 19  0  0  0  0  0  0  0  0999 V2000
   37.0090   34.3440   22.4880 C   0  0  0  0  0  0  0  0  0  0  0  0
   37.8210   34.0750   23.6630 C   0  0  0  0  0  0  0  0  0  0  0  0
   38.2250   36.9370   22.9120 C   0  0  0  0  0  0  0  0  0  0  0  0
   34.7470   32.6040   18.9950 N   0  0  0  0  0  0  0  0  0  0  0  0
   39.7070   36.6240   19.9080 N   0  0  0  0  0  0  0  0  0  0  0  0
   35.7240   34.5830   20.6400 C   0  0  0  0  0  0  0  0  0  0  0  0
   35.8440   33.2610   19.8220 C   0  0  0  0  0  0  0  0  0  0  0  0
   38.1310   38.3910   23.5510 C   0  0  0  0  0  0  0  0  0  0  0  0
   40.3780   37.6050   19.0150 C   0  0  0  0  0  0  0  0  0  0  0  0
   33.5790   35.1170   21.5350 O   0  0  0  0  0  0  0  0  0  0  0  0
   34.3650   34.4300   21.3100 C   0  0  0  0  0  0  0  0  0  0  0  0
   39.1110   36.2730   23.7470 C   0  0  0  0  0  0  0  0  0  0  0  0
   34.3060   33.0550   21.6920 O   0  0  0  0  0  0  0  0  0  0  0  0
   38.5440   37.3670   20.6080 C   0  0  0  0  0  0  0  0  0  0  0  0
   36.7520   35.3170   21.5250 C   0  0  0  0  0  0  0  0  0  0  0  0
   38.3880   39.5610   23.2880 O   0  0  0  0  0  0  0  0  0  0  0  0
   37.8830   36.3860   21.6170 C   0  0  0  0  0  0  0  0  0  0  0  0
   37.9590   38.3720   20.3080 O   0  0  0  0  0  0  0  0  0  0  0  0
   38.7030   35.1050   24.0960 C   0  0  0  0  0  0  0  0  0  0  0  0
  1  2  1  0
  2 19  2  0
  3  8  1  0
  3 12  1  0
  4  7  1  0
  5 14  1  0
  6  7  1  0
  6 11  1  0
  6 15  1  0
  9  5  1  0
 11 10  2  0
 11 13  1  0
 12 19  1  0
 15 17  1  0
 15  1  2  0
 16  8  2  0
 17 14  1  0
 17  3  1  0
 18 14  2  0
M  END
$$$$

     RDKit          3D

  6  5  0  0  0  0  0  0  0  0999 V2000
   37.0470   36.6030   20.2530 C   0  0  0  0  0  0  0  0  0  0  0  0
   36.4880   34.1050   20.0710 C   0  0  0  0  0  0  0  0  0  0  0  0
   38.7950   34.9970   19.4990 C   0  0  0  0  0  0  0  0  0  0  0  0
   37.2470   35.3280   19.5570 C   0  0  0  0  0  0  0  0  0  0  0  0
   36.6900   37.5600   20.6310 O   0  0  0  0  0  0  0  0  0  0  0  0
   36.7370   35.5440   18.2580 O   0  0  0  0  0  0  0  0  0  0  0  0
  1  5  1  0
  3  4  1  0
  4  2  1  0
  4  1  1  0
  6  4  1  0
M  END
$$$$

     RDKit          3D

 10  9  0  0  0  0  0  0  0  0999 V2000
   38.0280   36.0690   20.6440 P   0  0  0  0  0  0  0  0  0  0  0  0
   37.8490   35.3160   19.0510 C   0  0  0  0  0  0  0  0  0  0  0  0
   37.5800   38.9080   20.8910 C   0  0  0  0  0  0  0  0  0  0  0  0
   39.4580   35.7990   20.8300 O   0  0  0  0  0  0  0  0  0  0  0  0
   35.7090   37.4010   20.3280 O   0  0  0  0  0  0  0  0  0  0  0  0
   38.4340   37.9910   23.0150 O   0  0  0  0  0  0  0  0  0  0  0  0
   37.3580   34.9320   21.4900 O   0  0  0  0  0  0  0  0  0  0  0  0
   36.7010   38.2560   19.6860 C   0  0  0  0  0  0  0  0  0  0  0  0
   37.9540   37.6880   21.7880 C   0  0  0  0  0  0  0  0  0  0  0  0
   38.5050   40.3150   21.8590 Br  0  0  0  0  0  0  0  0  0  0  0  0
  1  2  1  0
  1  4  2  0
  1  7  1  0
  1  9  1  0
  3  9  1  0
  3 10  1  0
  8  5  1  0
  8  3  1  0
  9  6  1  0
M  END
$$$$
