
     RDKit          3D

 12 11  0  0  0  0  0  0  0  0999 V2000
   40.7270   37.0860   24.8270 S   0  0  0  0  0  0  0  0  0  0  0  0
   40.9110   38.4720   27.9190 O   0  0  0  0  0  0  0  0  0  0  0  0
   41.6690   38.4480   25.4390 C   0  0  0  0  0  0  0  0  0  0  0  0
   42.0800   36.6440   29.3710 C   0  0  0  0  0  0  0  0  0  0  0  0
   41.4970   35.7570   30.2770 N   0  0  0  0  0  0  0  0  0  0  0  0
   41.9700   38.2480   27.0340 C   0  0  0  0  0  0  0  0  0  0  0  0
   43.8880   37.1010   26.4890 O   0  0  0  0  0  0  0  0  0  0  0  0
   42.3100   36.3310   28.0490 C   0  0  0  0  0  0  0  0  0  0  0  0
   39.9070   39.3430   27.3820 C   0  0  0  0  0  0  0  0  0  0  0  0
   42.4840   37.7390   29.9100 O   0  0  0  0  0  0  0  0  0  0  0  0
   42.7420   37.2360   27.1740 C   0  0  0  0  0  0  0  0  0  0  0  0
   41.0140   34.9040   31.1310 C   0  0  0  0  0  0  0  0  0  0  0  0
  1  3  1  0
  4 10  2  0
  4  5  1  0
  5 12  3  0
  6  3  1  0
  6 11  1  0
  6  2  1  0
  8  4  1  0
  9  2  1  0
 11  7  1  0
 11  8  1  0
M  END
$$$$

     RDKit          3D

 21 21  0  0  0  0  0  0  0  0999 V2000
   40.5250   35.9300   28.2010 C   0  0  0  0  0  0  0  0  0  0  0  0
   41.3890   37.0570   28.5490 N   0  0  0  0  0  0  0  0  0  0  0  0
   40.0370   36.7980   30.5540 C   0  0  0  0  0  0  0  0  0  0  0  0
   38.2680   40.4750   24.5620 O   0  0  0  0  0  0  0  0  0  0  0  0
   40.9270   39.4500   26.0420 N   0  0  0  0  0  0  0  0  0  0  0  0
   40.1260   39.1830   24.8070 C   0  0  0  0  0  0  0  0  0  0  0  0
   38.6580   41.1760   25.5220 C   0  0  0  0  0  0  0  0  0  0  0  0
   40.0530   35.5970   29.6250 C   0  0  0  0  0  0  0  0  0  0  0  0
   41.4760   36.9040   30.9030 C   0  0  0  0  0  0  0  0  0  0  0  0
   41.5750   38.2900   28.0270 C   0  0  0  0  0  0  0  0  0  0  0  0
   40.1340   35.2860   32.2760 C   0  0  0  0  0  0  0  0  0  0  0  0
   43.0440   35.3400   32.0760 N   0  0  0  0  0  0  0  0  0  0  0  0
   39.0080   40.5690   26.8150 C   0  0  0  0  0  0  0  0  0  0  0  0
   41.5490   38.1890   26.5620 C   0  0  0  0  0  0  0  0  0  0  0  0
   42.1510   36.6310   29.6330 C   0  0  0  0  0  0  0  0  0  0  0  0
   40.8620   42.0980   26.5370 C   0  0  0  0  0  0  0  0  0  0  0  0
   38.6740   42.4440   25.5290 O   0  0  0  0  0  0  0  0  0  0  0  0
   41.9870   39.2850   28.6710 O   0  0  0  0  0  0  0  0  0  0  0  0
   41.5700   35.8450   31.9770 C   0  0  0  0  0  0  0  0  0  0  0  0
   43.3300   36.2360   29.3900 O   0  0  0  0  0  0  0  0  0  0  0  0
   40.4910   40.6470   26.7610 C   0  0  0  0  0  0  0  0  0  0  0  0
  1  2  1  0
  1  8  1  0
  2 15  1  0
  3  9  1  0
  4  7  2  0
  5 14  1  0
  5 21  1  0
  6  5  1  0
  7 17  1  0
  7 13  1  0
  8  3  1  0
  9 19  1  0
 10  2  1  0
 10 18  2  0
 14 10  1  0
 15  9  1  0
 19 12  1  0
 19 11  1  0
 20 15  2  0
 21 16  1  0
 21 13  1  0
M  END
$$$$

     RDKit          3D

 15 16  0  0  0  0  0  0  0  0999 V2000
   42.8750   39.4060   25.1110 O   0  0  0  0  0  0  0  0  0  0  0  0
   42.1400   35.5830   30.5920 N   0  0  0  0  0  0  0  0  0  0  0  0
   42.7080   38.1470   27.1970 C   0  0  0  0  0  0  0  0  0  0  0  0
   44.7160   37.2140   27.8080 C   0  0  0  0  0  0  0  0  0  0  0  0
   42.9140   37.3940   31.7890 O   0  0  0  0  0  0  0  0  0  0  0  0
   40.8750   37.9810   25.5010 O   0  0  0  0  0  0  0  0  0  0  0  0
   41.7300   39.0590   26.1300 S   0  0  0  0  0  0  0  0  0  0  0  0
   40.4310   39.4530   27.4410 O   0  0  0  0  0  0  0  0  0  0  0  0
   44.3980   37.3640   29.1200 C   0  0  0  0  0  0  0  0  0  0  0  0
   40.6340   38.2940   28.3790 C   0  0  0  0  0  0  0  0  0  0  0  0
   41.2640   34.9440   31.4490 C   0  0  0  0  0  0  0  0  0  0  0  0
   43.9530   37.6730   26.8370 C   0  0  0  0  0  0  0  0  0  0  0  0
   42.9960   37.4650   29.3650 C   0  0  0  0  0  0  0  0  0  0  0  0
   42.6380   36.8390   30.6890 C   0  0  0  0  0  0  0  0  0  0  0  0
   42.1380   37.9210   28.4050 C   0  0  0  0  0  0  0  0  0  0  0  0
  1  7  1  0
  2 14  1  0
  2 11  1  0
  3 15  2  0
  4  9  1  0
  6  7  1  0
  7  3  1  0
  7  8  1  0
  8 10  1  0
  9 13  1  0
 10 15  1  0
 12  3  1  0
 12  4  2  0
 13 14  1  0
 14  5  2  0
 15 13  1  0
M  END
$$$$

     RDKit          3D

 23 23  0  0  0  0  0  0  0  0999 V2000
   40.1620   40.2050   27.5490 C   0  0  0  0  0  0  0  0  0  0  0  0
   40.8000   35.5040   26.7810 O   0  0  0  0  0  0  0  0  0  0  0  0
   42.7540   37.3730   30.1490 C   0  0  0  0  0  0  0  0  0  0  0  0
   38.5760   40.7550   25.6900 N   0  0  0  0  0  0  0  0  0  0  0  0
   44.7730   37.6140   31.5950 C   0  0  0  0  0  0  0  0  0  0  0  0
   45.8220   38.7450   33.6820 O   0  0  0  0  0  0  0  0  0  0  0  0
   39.4000   40.4340   26.5220 C   0  0  0  0  0  0  0  0  0  0  0  0
   43.8160   36.6370   29.6250 C   0  0  0  0  0  0  0  0  0  0  0  0
   40.7960   36.3950   31.3900 N   0  0  0  0  0  0  0  0  0  0  0  0
   41.3170   36.9150   30.1090 C   0  0  0  0  0  0  0  0  0  0  0  0
   39.6390   38.4720   25.3440 N   0  0  0  0  0  0  0  0  0  0  0  0
   40.8230   39.0270   28.0360 C   0  0  0  0  0  0  0  0  0  0  0  0
   41.0730   36.0120   29.0280 N   0  0  0  0  0  0  0  0  0  0  0  0
   44.9880   37.2110   30.2070 C   0  0  0  0  0  0  0  0  0  0  0  0
   41.9430   37.8630   25.1160 C   0  0  0  0  0  0  0  0  0  0  0  0
   40.7640   38.1180   25.8840 C   0  0  0  0  0  0  0  0  0  0  0  0
   40.9390   36.3290   27.7180 C   0  0  0  0  0  0  0  0  0  0  0  0
   40.8460   37.7830   27.2970 C   0  0  0  0  0  0  0  0  0  0  0  0
   43.1640   37.7770   31.8940 S   0  0  0  0  0  0  0  0  0  0  0  0
   46.4600   36.3670   33.1750 O   0  0  0  0  0  0  0  0  0  0  0  0
   46.2450   37.7810   32.6110 P   0  0  0  0  0  0  0  0  0  0  0  0
   40.9200   34.9550   31.6180 C   0  0  0  0  0  0  0  0  0  0  0  0
   47.5580   38.1120   32.0530 O   0  0  0  0  0  0  0  0  0  0  0  0
  1 12  2  3
  2 17  2  0
  3 10  1  0
  3 19  1  0
  4  7  3  0
  5 19  1  0
  5 21  1  0
  7  1  1  0
  8  3  1  0
  8 14  1  0
  9 22  1  0
 10 13  1  0
 10  9  1  0
 11 16  2  0
 14  5  1  0
 15 16  1  0
 16 18  1  0
 17 13  1  0
 18 17  1  0
 18 12  1  0
 21 20  1  0
 21  6  1  0
 23 21  2  0
M  END
$$$$

     RDKit          3D

  7  6  0  0  0  0  0  0  0  0999 V2000
   41.1210   39.4880   28.4100 O   0  0  0  0  0  0  0  0  0  0  0  0
   41.0620   40.3040   26.3700 O   0  0  0  0  0  0  0  0  0  0  0  0
   43.8520   38.7370   27.3070 C   0  0  0  0  0  0  0  0  0  0  0  0
   42.4970   38.4190   26.7640 C   0  0  0  0  0  0  0  0  0  0  0  0
   41.5070   39.5010   27.2480 C   0  0  0  0  0  0  0  0  0  0  0  0
   44.5910   37.8650   27.8090 O   0  0  0  0  0  0  0  0  0  0  0  0
   44.2680   39.8840   27.0960 O   0  0  0  0  0  0  0  0  0  0  0  0
  2  5  2  0
  3  6  1  0
  4  5  1  0
  4  3  1  0
  5  1  1  0
  7  3  2  0
M  END
$$$$

     RDKit          3D

 12 12  0  0  0  0  0  0  0  0999 V2000
   40.5670   35.1450   31.3480 C   0  0  0  0  0  0  0  0  0  0  0  0
   44.3880   37.2600   28.1680 N   0  0  0  0  0  0  0  0  0  0  0  0
   41.7030   37.1340   30.1050 C   0  0  0  0  0  0  0  0  0  0  0  0
   43.5090   38.3420   28.6760 C   0  0  0  0  0  0  0  0  0  0  0  0
   44.8260   36.1600   29.2580 C   0  0  0  0  0  0  0  0  0  0  0  0
   42.0380   37.8560   28.7910 C   0  0  0  0  0  0  0  0  0  0  0  0
   41.0070   36.0370   30.2780 N   0  0  0  0  0  0  0  0  0  0  0  0
   42.8130   40.4570   27.5680 O   0  0  0  0  0  0  0  0  0  0  0  0
   42.6640   39.0590   27.9600 C   0  0  0  0  0  0  0  0  0  0  0  0
   43.8070   38.8920   30.2990 C   0  0  0  0  0  0  0  0  0  0  0  0
   44.9580   35.9290   30.4690 N   0  0  0  0  0  0  0  0  0  0  0  0
   40.6900   37.4970   28.4700 N   0  0  0  0  0  0  0  0  0  0  0  0
  2  4  1  0
  2  5  1  0
  3  7  2  3
  4  6  1  0
  4 10  1  0
  5 11  2  0
  6 12  1  0
  6  3  1  0
  7  1  1  0
  9  8  1  0
  9  4  1  0
  9  6  1  0
M  END
$$$$

     RDKit          3D

  9  8  0  0  0  0  0  0  0  0999 V2000
   43.0780   38.4830   28.4670 C   0  0  0  0  0  0  0  0  0  0  0  0
   41.1590   36.4390   30.5970 C   0  0  0  0  0  0  0  0  0  0  0  0
   41.0560   35.0860   31.3030 C   0  0  0  0  0  0  0  0  0  0  0  0
   41.8260   37.7160   27.9350 C   0  0  0  0  0  0  0  0  0  0  0  0
   44.1890   37.5850   28.3920 O   0  0  0  0  0  0  0  0  0  0  0  0
   41.2830   36.3780   28.7400 S   0  0  0  0  0  0  0  0  0  0  0  0
   42.2950   37.2540   31.1500 C   0  0  0  0  0  0  0  0  0  0  0  0
   40.6250   38.6750   27.8810 C   0  0  0  0  0  0  0  0  0  0  0  0
   42.1240   37.1580   26.5620 N   0  0  0  0  0  0  0  0  0  0  0  0
  2  7  1  0
  2  3  1  0
  4  8  1  0
  4  1  1  0
  4  6  1  0
  5  1  1  0
  6  2  1  0
  9  4  1  0
M  END
$$$$

     RDKit          3D

 10  9  0  0  0  0  0  0  0  0999 V2000
   41.6560   36.6320   28.8750 N   0  0  0  0  0  0  0  0  0  0  0  0
   41.5880   36.8830   31.2380 O   0  0  0  0  0  0  0  0  0  0  0  0
   41.5220   36.1500   30.2410 C   0  0  0  0  0  0  0  0  0  0  0  0
   42.4640   39.9470   27.5580 C   0  0  0  0  0  0  0  0  0  0  0  0
   43.8490   37.5460   28.4410 O   0  0  0  0  0  0  0  0  0  0  0  0
   43.6280   39.2190   27.0330 O   0  0  0  0  0  0  0  0  0  0  0  0
   41.2980   34.8960   30.3570 N   0  0  0  0  0  0  0  0  0  0  0  0
   41.1970   38.0880   28.7850 C   0  0  0  0  0  0  0  0  0  0  0  0
   41.3750   38.9360   27.6480 C   0  0  0  0  0  0  0  0  0  0  0  0
   43.4990   37.8040   27.0840 C   0  0  0  0  0  0  0  0  0  0  0  0
  1  3  1  0
  3  7  1  0
  3  2  2  0
  4  9  1  0
  6 10  1  0
  6  4  1  0
  8  1  1  0
  9  8  1  0
 10  5  1  0
M  END
$$$$

     RDKit          3D

 10  9  0  0  0  0  0  0  0  0999 V2000
   42.4180   38.1630   28.8770 C   0  0  0  0  0  0  0  0  0  0  0  0
   41.5010   35.9170   29.5930 C   0  0  0  0  0  0  0  0  0  0  0  0
   40.8340   36.4580   30.8830 C   0  0  0  0  0  0  0  0  0  0  0  0
   41.7750   37.1970   31.6320 O   0  0  0  0  0  0  0  0  0  0  0  0
   41.3300   39.0400   26.6090 O   0  0  0  0  0  0  0  0  0  0  0  0
   42.0480   37.7040   27.2060 P   0  0  0  0  0  0  0  0  0  0  0  0
   42.7010   36.7770   29.2300 C   0  0  0  0  0  0  0  0  0  0  0  0
   41.2170   36.3150   26.8860 O   0  0  0  0  0  0  0  0  0  0  0  0
   43.9520   36.3700   29.2090 N   0  0  0  0  0  0  0  0  0  0  0  0
   43.5260   37.4870   26.5120 O   0  0  0  0  0  0  0  0  0  0  0  0
  1  7  1  0
  2  3  1  0
  3  4  1  0
  5  6  1  0
  6  1  1  0
  7  2  1  0
  8  6  1  0
  9  7  2  0
 10  6  2  0
M  END
$$$$

     RDKit          3D

 29 31  0  0  0  0  0  0  0  0999 V2000
   41.4600   37.8120   27.6230 C   0  0  0  0  0  0  0  0  0  0  0  0
   45.2150   37.1900   28.0950 C   0  0  0  0  0  0  0  0  0  0  0  0
   43.8510   36.8540   31.4360 C   0  0  0  0  0  0  0  0  0  0  0  0
   42.7470   38.7150   28.0570 C   0  0  0  0  0  0  0  0  0  0  0  0
   39.9660   37.4300   24.2400 C   0  0  0  0  0  0  0  0  0  0  0  0
   41.3090   37.4380   23.4970 C   0  0  0  0  0  0  0  0  0  0  0  0
   47.0750   37.9610   30.0270 C   0  0  0  0  0  0  0  0  0  0  0  0
   42.7760   40.0230   27.0740 O   0  0  0  0  0  0  0  0  0  0  0  0
   45.4400   37.2230   32.2360 S   0  0  0  0  0  0  0  0  0  0  0  0
   38.9100   38.4750   24.1860 C   0  0  0  0  0  0  0  0  0  0  0  0
   40.1880   39.2210   26.3940 C   0  0  0  0  0  0  0  0  0  0  0  0
   40.6390   36.2850   31.5270 O   0  0  0  0  0  0  0  0  0  0  0  0
   39.1460   41.2320   26.9710 C   0  0  0  0  0  0  0  0  0  0  0  0
   44.4850   39.0160   29.5990 C   0  0  0  0  0  0  0  0  0  0  0  0
   39.9890   40.2790   27.4780 C   0  0  0  0  0  0  0  0  0  0  0  0
   42.3780   36.2210   29.1320 N   0  0  0  0  0  0  0  0  0  0  0  0
   38.9130   39.5170   25.2960 C   0  0  0  0  0  0  0  0  0  0  0  0
   43.9800   37.9270   28.9540 C   0  0  0  0  0  0  0  0  0  0  0  0
   46.3200   40.5360   30.7010 C   0  0  0  0  0  0  0  0  0  0  0  0
   40.2340   36.6720   25.6790 C   0  0  0  0  0  0  0  0  0  0  0  0
   40.8420   36.2350   23.0970 C   0  0  0  0  0  0  0  0  0  0  0  0
   42.7970   36.2490   30.4210 C   0  0  0  0  0  0  0  0  0  0  0  0
   40.7640   38.0180   26.2790 C   0  0  0  0  0  0  0  0  0  0  0  0
   41.9150   36.6900   27.8760 O   0  0  0  0  0  0  0  0  0  0  0  0
   46.6670   36.8910   28.7640 C   0  0  0  0  0  0  0  0  0  0  0  0
   46.1750   39.2630   29.8020 C   0  0  0  0  0  0  0  0  0  0  0  0
   39.4820   36.1950   23.4650 O   0  0  0  0  0  0  0  0  0  0  0  0
   40.5660   35.5860   26.5340 O   0  0  0  0  0  0  0  0  0  0  0  0
   41.7940   35.4170   31.2960 C   0  0  0  0  0  0  0  0  0  0  0  0
  1 24  1  0
  1  4  1  0
  2 25  1  0
  2 18  1  0
  3  9  1  0
  4  8  1  0
  5  6  1  0
  5 20  1  0
 10  5  1  0
 10 17  1  0
 11 15  1  0
 13 15  1  0
 14 26  1  0
 16 22  1  0
 17 11  1  0
 18  4  1  0
 18 14  1  0
 20 23  1  0
 20 28  1  0
 21 27  1  0
 21  6  1  0
 22 29  1  0
 22  3  1  0
 23 11  1  0
 23  1  1  0
 24 16  1  0
 25  7  1  0
 26  7  1  0
 26 19  1  0
 27  5  1  0
 29 12  1  0
M  END
$$$$

     RDKit          3D

 19 19  0  0  0  0  0  0  0  0999 V2000
   40.7060   34.8440   31.5900 C   0  0  0  0  0  0  0  0  0  0  0  0
   41.0630   36.7990   30.5970 C   0  0  0  0  0  0  0  0  0  0  0  0
   41.8950   37.1530   27.5490 C   0  0  0  0  0  0  0  0  0  0  0  0
   41.3900   36.1450   27.0460 O   0  0  0  0  0  0  0  0  0  0  0  0
   40.7720   40.2350   26.3310 C   0  0  0  0  0  0  0  0  0  0  0  0
   41.2870   35.9790   32.2910 N   0  0  0  0  0  0  0  0  0  0  0  0
   41.3650   39.4880   28.4710 C   0  0  0  0  0  0  0  0  0  0  0  0
   43.2700   37.5800   27.0580 O   0  0  0  0  0  0  0  0  0  0  0  0
   42.0730   37.4590   29.7740 C   0  0  0  0  0  0  0  0  0  0  0  0
   41.1030   40.2290   24.9220 O   0  0  0  0  0  0  0  0  0  0  0  0
   41.4730   38.0090   28.4370 N   0  0  0  0  0  0  0  0  0  0  0  0
   44.4170   39.4970   28.8650 O   0  0  0  0  0  0  0  0  0  0  0  0
   44.6030   38.4450   27.6800 P   0  0  0  0  0  0  0  0  0  0  0  0
   45.4440   37.1030   28.2730 O   0  0  0  0  0  0  0  0  0  0  0  0
   45.3600   39.2880   26.6200 O   0  0  0  0  0  0  0  0  0  0  0  0
   39.6900   41.2190   26.7380 C   0  0  0  0  0  0  0  0  0  0  0  0
   38.4470   41.0490   25.8970 C   0  0  0  0  0  0  0  0  0  0  0  0
   40.8380   35.3420   30.1860 C   0  0  0  0  0  0  0  0  0  0  0  0
   41.9280   40.0710   27.1580 C   0  0  0  0  0  0  0  0  0  0  0  0
  1  6  1  0
  2  9  1  0
  2  6  1  0
  3 11  1  0
  4  3  2  0
  5 10  1  0
  5 16  1  0
  5 19  1  0
  8  3  1  0
  8 13  1  0
 11  7  1  0
 11  9  1  0
 13 14  1  0
 13 12  1  0
 15 13  2  0
 17 16  1  0
 18  2  1  0
 18  1  1  0
 19  7  1  0
M  END
$$$$

     RDKit          3D

 13 12  0  0  0  0  0  0  0  0999 V2000
   40.6360   36.4350   30.8580 S   0  0  0  0  0  0  0  0  0  0  0  0
   42.5210   38.1130   25.4370 O   0  0  0  0  0  0  0  0  0  0  0  0
   42.5710   37.1170   27.4940 C   0  0  0  0  0  0  0  0  0  0  0  0
   41.8950   36.6490   29.6400 C   0  0  0  0  0  0  0  0  0  0  0  0
   41.1780   39.0930   27.0290 C   0  0  0  0  0  0  0  0  0  0  0  0
   40.6710   41.3080   27.1580 C   0  0  0  0  0  0  0  0  0  0  0  0
   41.0600   34.8040   31.3480 C   0  0  0  0  0  0  0  0  0  0  0  0
   41.4080   36.4320   28.2290 C   0  0  0  0  0  0  0  0  0  0  0  0
   42.0100   40.3880   27.0720 C   0  0  0  0  0  0  0  0  0  0  0  0
   40.6640   35.9780   27.0040 N   0  0  0  0  0  0  0  0  0  0  0  0
   42.1270   38.1560   26.5960 C   0  0  0  0  0  0  0  0  0  0  0  0
   42.4170   40.5810   25.5880 C   0  0  0  0  0  0  0  0  0  0  0  0
   43.4820   37.8010   28.2700 O   0  0  0  0  0  0  0  0  0  0  0  0
  1  7  1  0
  2 11  2  0
  3  8  1  0
  3 13  1  0
  4  1  1  0
  5  9  1  0
  8 10  1  0
  8  4  1  0
  9  6  1  0
 11  5  1  0
 11  3  1  0
 12  9  1  0
M  END
$$$$

     RDKit          3D

 11 11  0  0  0  0  0  0  0  0999 V2000
   41.1800   36.7710   29.7170 C   0  0  0  0  0  0  0  0  0  0  0  0
   42.8560   37.5820   27.4440 C   0  0  0  0  0  0  0  0  0  0  0  0
   43.6650   37.3130   29.7400 C   0  0  0  0  0  0  0  0  0  0  0  0
   43.6750   38.1830   28.5170 C   0  0  0  0  0  0  0  0  0  0  0  0
   40.6070   35.8250   30.7750 C   0  0  0  0  0  0  0  0  0  0  0  0
   41.5060   37.1590   27.3540 C   0  0  0  0  0  0  0  0  0  0  0  0
   44.4840   37.1750   30.6590 O   0  0  0  0  0  0  0  0  0  0  0  0
   41.0700   36.1720   28.2900 O   0  0  0  0  0  0  0  0  0  0  0  0
   42.3230   39.0490   26.6020 O   0  0  0  0  0  0  0  0  0  0  0  0
   44.9690   38.5170   27.9770 O   0  0  0  0  0  0  0  0  0  0  0  0
   42.5760   36.5620   29.9760 N   0  0  0  0  0  0  0  0  0  0  0  0
  1 11  1  0
  1  5  1  0
  2  9  1  0
  2  4  1  0
  3 11  1  0
  3  7  2  0
  4 10  1  0
  4  3  1  0
  6  2  1  0
  6  8  1  0
  8  1  1  0
M  END
$$$$

     RDKit          3D

 16 17  0  0  0  0  0  0  0  0999 V2000
   45.2170   37.5970   28.2900 C   0  0  0  0  0  0  0  0  0  0  0  0
   42.9980   37.7070   27.0070 C   0  0  0  0  0  0  0  0  0  0  0  0
   44.8720   35.9620   31.9450 O   0  0  0  0  0  0  0  0  0  0  0  0
   42.1140   35.9300   31.5610 C   0  0  0  0  0  0  0  0  0  0  0  0
   42.0770   36.7630   30.3120 N   0  0  0  0  0  0  0  0  0  0  0  0
   42.7010   38.2650   28.3960 C   0  0  0  0  0  0  0  0  0  0  0  0
   45.1780   37.5750   25.9070 C   0  0  0  0  0  0  0  0  0  0  0  0
   40.2100   35.3340   30.2690 C   0  0  0  0  0  0  0  0  0  0  0  0
   44.5050   37.1930   31.3950 C   0  0  0  0  0  0  0  0  0  0  0  0
   40.7430   35.3230   31.6940 C   0  0  0  0  0  0  0  0  0  0  0  0
   45.0580   38.6150   25.3540 O   0  0  0  0  0  0  0  0  0  0  0  0
   44.5340   37.1870   29.7620 C   0  0  0  0  0  0  0  0  0  0  0  0
   43.0290   37.3780   29.5460 C   0  0  0  0  0  0  0  0  0  0  0  0
   44.4120   37.2240   27.0790 N   0  0  0  0  0  0  0  0  0  0  0  0
   40.7240   36.6280   29.6570 C   0  0  0  0  0  0  0  0  0  0  0  0
   42.2600   36.8100   32.6550 O   0  0  0  0  0  0  0  0  0  0  0  0
  1 12  1  0
  2 14  1  0
  2  6  1  0
  4 10  1  0
  4 16  1  0
  5 15  1  0
  5  4  1  0
  7 14  1  0
  8 10  1  0
  9  3  1  0
 11  7  2  0
 12  9  1  0
 13  6  1  0
 13 12  1  0
 13  5  1  0
 14  1  1  0
 15  8  1  0
M  END
$$$$

     RDKit          3D

 14 13  0  0  0  0  0  0  0  0999 V2000
   39.5640   38.1020   27.2030 C   0  0  0  0  0  0  0  0  0  0  0  0
   31.9290   37.1890   28.0060 C   0  0  0  0  0  0  0  0  0  0  0  0
   36.3990   35.8290   28.5730 C   0  0  0  0  0  0  0  0  0  0  0  0
   33.5940   35.3840   28.1090 O   0  0  0  0  0  0  0  0  0  0  0  0
   39.2210   37.5960   26.2320 C   0  0  0  0  0  0  0  0  0  0  0  0
   33.2060   36.4530   28.3470 C   0  0  0  0  0  0  0  0  0  0  0  0
   35.2720   38.0200   28.1670 C   0  0  0  0  0  0  0  0  0  0  0  0
   40.3490   36.6520   26.0600 O   0  0  0  0  0  0  0  0  0  0  0  0
   37.1500   39.8050   26.7730 O   0  0  0  0  0  0  0  0  0  0  0  0
   40.3170   39.5740   26.7710 C   0  0  0  0  0  0  0  0  0  0  0  0
   36.2330   37.0800   27.9860 C   0  0  0  0  0  0  0  0  0  0  0  0
   37.4740   37.4410   27.0550 C   0  0  0  0  0  0  0  0  0  0  0  0
   34.1870   37.4690   28.7900 C   0  0  0  0  0  0  0  0  0  0  0  0
   37.7900   38.5640   26.6750 C   0  0  0  0  0  0  0  0  0  0  0  0
  2  6  1  0
  4  6  2  0
  5  8  1  0
  5 14  1  0
  5  1  1  0
  6 13  1  0
  7 13  1  0
 10  1  1  0
 11  7  1  0
 11  3  1  0
 12 11  1  0
 14  9  1  0
 14 12  2  3
M  END
$$$$

     RDKit          3D

 14 13  0  0  0  0  0  0  0  0999 V2000
   43.1250   37.5080   29.1810 C   0  0  0  0  0  0  0  0  0  0  0  0
   41.8990   35.4570   30.1460 N   0  0  0  0  0  0  0  0  0  0  0  0
   44.5910   36.7980   29.7400 O   0  0  0  0  0  0  0  0  0  0  0  0
   43.2010   37.5240   28.0380 C   0  0  0  0  0  0  0  0  0  0  0  0
   41.9360   39.3300   27.6350 C   0  0  0  0  0  0  0  0  0  0  0  0
   42.7170   39.6970   26.4640 C   0  0  0  0  0  0  0  0  0  0  0  0
   44.2270   37.3270   27.2310 O   0  0  0  0  0  0  0  0  0  0  0  0
   41.9840   37.0060   30.0090 C   0  0  0  0  0  0  0  0  0  0  0  0
   41.8900   37.8650   27.6700 C   0  0  0  0  0  0  0  0  0  0  0  0
   41.2720   36.5860   27.3160 O   0  0  0  0  0  0  0  0  0  0  0  0
   42.6210   37.5080   31.4630 O   0  0  0  0  0  0  0  0  0  0  0  0
   40.8700   35.0510   31.1500 C   0  0  0  0  0  0  0  0  0  0  0  0
   40.5680   39.8310   27.4250 O   0  0  0  0  0  0  0  0  0  0  0  0
   42.8130   38.8640   25.4490 O   0  0  0  0  0  0  0  0  0  0  0  0
  1  3  1  0
  1  8  1  0
  2 12  1  0
  4  7  1  0
  4  1  1  0
  5 13  1  0
  5  9  1  0
  6  5  1  0
  8  2  1  0
  8 11  1  0
  9 10  1  0
  9  4  1  0
 14  6  1  0
M  END
$$$$

     RDKit          3D

 16 16  0  0  0  0  0  0  0  0999 V2000
   42.1730   36.6490   27.8580 C   0  0  0  0  0  0  0  0  0  0  0  0
   42.2250   40.1980   27.8370 N   0  0  0  0  0  0  0  0  0  0  0  0
   42.3930   41.6950   26.3280 C   0  0  0  0  0  0  0  0  0  0  0  0
   41.6590   37.9070   28.4560 C   0  0  0  0  0  0  0  0  0  0  0  0
   43.1440   42.4680   26.9320 O   0  0  0  0  0  0  0  0  0  0  0  0
   41.8330   40.3580   26.5870 C   0  0  0  0  0  0  0  0  0  0  0  0
   42.7420   38.9370   28.2460 C   0  0  0  0  0  0  0  0  0  0  0  0
   41.0700   39.9770   24.4360 C   0  0  0  0  0  0  0  0  0  0  0  0
   40.8130   35.2110   30.6550 C   0  0  0  0  0  0  0  0  0  0  0  0
   41.2310   39.6150   25.7600 N   0  0  0  0  0  0  0  0  0  0  0  0
   41.8230   35.7230   31.7480 C   0  0  0  0  0  0  0  0  0  0  0  0
   41.9700   42.3140   25.5470 O   0  0  0  0  0  0  0  0  0  0  0  0
   41.9450   37.1500   31.9830 O   0  0  0  0  0  0  0  0  0  0  0  0
   42.1260   36.8750   26.4450 O   0  0  0  0  0  0  0  0  0  0  0  0
   41.4640   35.9070   29.2530 N   0  0  0  0  0  0  0  0  0  0  0  0
   41.4080   37.2400   29.8100 C   0  0  0  0  0  0  0  0  0  0  0  0
  1 14  1  0
  1  4  1  0
  1 15  1  0
  2  7  1  0
  3  6  1  0
  3  5  1  0
  4  7  1  0
  4 16  1  0
  6  2  1  0
  8 10  1  0
  9 11  1  0
 10  6  2  3
 11 13  1  0
 12  3  2  0
 15 16  1  0
 15  9  1  0
M  END
$$$$

     RDKit          3D

 14 13  0  0  0  0  0  0  0  0999 V2000
   42.9550   37.4890   25.4660 O   0  0  0  0  0  0  0  0  0  0  0  0
   42.4480   39.1640   28.2790 C   0  0  0  0  0  0  0  0  0  0  0  0
   42.0480   39.2950   26.9890 O   0  0  0  0  0  0  0  0  0  0  0  0
   43.7930   37.3090   26.5360 C   0  0  0  0  0  0  0  0  0  0  0  0
   40.9850   37.2430   29.9660 C   0  0  0  0  0  0  0  0  0  0  0  0
   45.1460   37.1190   26.7600 O   0  0  0  0  0  0  0  0  0  0  0  0
   43.3210   39.9200   28.7090 O   0  0  0  0  0  0  0  0  0  0  0  0
   43.9710   37.3080   29.0180 C   0  0  0  0  0  0  0  0  0  0  0  0
   40.9120   35.1660   30.8540 C   0  0  0  0  0  0  0  0  0  0  0  0
   41.8910   36.0530   30.0480 N   0  0  0  0  0  0  0  0  0  0  0  0
   41.7710   36.0920   27.6700 C   0  0  0  0  0  0  0  0  0  0  0  0
   43.4700   36.5570   30.1760 C   0  0  0  0  0  0  0  0  0  0  0  0
   43.0760   36.9840   27.7780 N   0  0  0  0  0  0  0  0  0  0  0  0
   41.7010   38.3090   29.0570 C   0  0  0  0  0  0  0  0  0  0  0  0
  1  4  2  0
  2  7  1  0
  2 14  1  0
  3  2  2  0
  4  6  1  0
  4 13  1  0
  5 10  1  0
  8 12  1  0
 10 12  1  0
 10  9  1  0
 11 13  1  0
 13  8  1  0
 14  5  1  0
M  END
$$$$

     RDKit          3D

 15 16  0  0  0  0  0  0  0  0999 V2000
   42.1370   37.5580   26.6550 C   0  0  0  0  0  0  0  0  0  0  0  0
   43.5960   38.3820   29.0320 C   0  0  0  0  0  0  0  0  0  0  0  0
   40.2910   40.5680   26.8810 C   0  0  0  0  0  0  0  0  0  0  0  0
   40.4380   35.8000   29.8060 C   0  0  0  0  0  0  0  0  0  0  0  0
   42.8300   36.5050   30.2650 C   0  0  0  0  0  0  0  0  0  0  0  0
   41.2010   39.4940   26.3600 N   0  0  0  0  0  0  0  0  0  0  0  0
   42.6410   39.2820   28.3320 C   0  0  0  0  0  0  0  0  0  0  0  0
   42.2360   37.4490   31.0970 N   0  0  0  0  0  0  0  0  0  0  0  0
   40.8060   35.1730   31.0410 C   0  0  0  0  0  0  0  0  0  0  0  0
   43.4000   36.8920   28.8540 C   0  0  0  0  0  0  0  0  0  0  0  0
   42.2540   35.5810   31.3670 C   0  0  0  0  0  0  0  0  0  0  0  0
   40.9340   34.7130   29.6300 N   0  0  0  0  0  0  0  0  0  0  0  0
   41.8200   38.6950   27.2350 N   0  0  0  0  0  0  0  0  0  0  0  0
   42.4610   37.4430   25.4850 O   0  0  0  0  0  0  0  0  0  0  0  0
   44.4920   38.7810   29.7830 O   0  0  0  0  0  0  0  0  0  0  0  0
  1 13  1  0
  2 15  2  0
  5 10  1  0
  5  8  1  0
  5 11  1  0
  6  3  1  0
  6 13  1  0
  7  2  1  0
  9  4  1  0
  9 11  1  0
 10  2  1  0
 11  8  1  0
 12  4  1  0
 12  9  1  0
 13  7  1  0
 14  1  2  0
M  END
$$$$

     RDKit          3D

 15 15  0  0  0  0  0  0  0  0999 V2000
   41.7580   36.5660   29.2410 C   0  0  0  0  0  0  0  0  0  0  0  0
   42.0580   36.2480   30.6760 C   0  0  0  0  0  0  0  0  0  0  0  0
   43.3670   37.7850   32.1340 N   0  0  0  0  0  0  0  0  0  0  0  0
   43.3880   35.6690   30.6150 N   0  0  0  0  0  0  0  0  0  0  0  0
   42.6110   37.5530   28.5000 C   0  0  0  0  0  0  0  0  0  0  0  0
   41.5420   40.3200   26.9780 C   0  0  0  0  0  0  0  0  0  0  0  0
   42.9860   37.7250   26.2030 O   0  0  0  0  0  0  0  0  0  0  0  0
   40.8390   35.9810   28.2450 O   0  0  0  0  0  0  0  0  0  0  0  0
   40.8360   35.9770   25.8750 O   0  0  0  0  0  0  0  0  0  0  0  0
   42.1290   37.6330   31.3800 C   0  0  0  0  0  0  0  0  0  0  0  0
   41.9110   37.7220   27.1800 C   0  0  0  0  0  0  0  0  0  0  0  0
   40.9380   38.9270   26.9760 C   0  0  0  0  0  0  0  0  0  0  0  0
   42.9640   40.3480   26.8470 O   0  0  0  0  0  0  0  0  0  0  0  0
   41.0840   36.4420   26.9740 C   0  0  0  0  0  0  0  0  0  0  0  0
   43.7450   37.9990   28.8650 O   0  0  0  0  0  0  0  0  0  0  0  0
  1  2  1  0
  2  4  1  0
  2 10  1  0
  5 15  2  0
  5  1  1  0
  8  1  1  0
  9 14  2  0
 10  3  1  0
 11  7  1  0
 11  5  1  0
 12  6  1  0
 12 11  1  0
 13  6  1  0
 14 11  1  0
 14  8  1  0
M  END
$$$$
