
     RDKit          3D

 11 10  0  0  0  0  0  0  0  0999 V2000
   43.1840   38.6720   27.2140 C   0  0  0  0  0  0  0  0  0  0  0  0
   45.4430   36.2820   27.4200 O   0  0  0  0  0  0  0  0  0  0  0  0
   43.3940   38.9320   26.1750 C   0  0  0  0  0  0  0  0  0  0  0  0
   44.2860   36.8270   27.1640 C   0  0  0  0  0  0  0  0  0  0  0  0
   41.6360   38.6090   25.4300 O   0  0  0  0  0  0  0  0  0  0  0  0
   41.7240   39.5070   27.6790 C   0  0  0  0  0  0  0  0  0  0  0  0
   41.0350   39.5680   26.3650 C   0  0  0  0  0  0  0  0  0  0  0  0
   43.6870   37.3820   27.8250 C   0  0  0  0  0  0  0  0  0  0  0  0
   43.7630   39.2040   24.8550 O   0  0  0  0  0  0  0  0  0  0  0  0
   42.2220   37.1170   30.0110 C   0  0  0  0  0  0  0  0  0  0  0  0
   43.5840   36.3110   29.1120 C   0  0  0  0  0  0  0  0  0  0  0  0
  1  6  1  0
  1  8  1  0
  3  1  2  0
  4  2  1  0
  5  7  1  0
  7  6  1  0
  8  4  1  0
  8 11  1  0
  9  3  2  0
 11 10  1  0
M  END
$$$$

     RDKit          3D

 21 21  0  0  0  0  0  0  0  0999 V2000
   38.4540   39.2450   23.1550 C   0  0  0  0  0  0  0  0  0  0  0  0
   38.9200   37.9680   22.7170 N   0  0  0  0  0  0  0  0  0  0  0  0
   44.0310   34.9880   29.1030 O   0  0  0  0  0  0  0  0  0  0  0  0
   42.0220   37.6250   27.7120 C   0  0  0  0  0  0  0  0  0  0  0  0
   42.3260   36.4010   28.3200 N   0  0  0  0  0  0  0  0  0  0  0  0
   39.2980   37.0920   23.8440 C   0  0  0  0  0  0  0  0  0  0  0  0
   43.1640   38.8740   27.2570 S   0  0  0  0  0  0  0  0  0  0  0  0
   44.5960   38.3380   27.8450 C   0  0  0  0  0  0  0  0  0  0  0  0
   44.7510   36.9890   28.3860 C   0  0  0  0  0  0  0  0  0  0  0  0
   40.5420   37.8710   27.3680 C   0  0  0  0  0  0  0  0  0  0  0  0
   48.2960   38.7920   30.3170 O   0  0  0  0  0  0  0  0  0  0  0  0
   48.7890   36.5890   28.5050 O   0  0  0  0  0  0  0  0  0  0  0  0
   48.7060   36.1530   31.0560 O   0  0  0  0  0  0  0  0  0  0  0  0
   39.8660   37.8840   24.9950 C   0  0  0  0  0  0  0  0  0  0  0  0
   46.6110   36.8580   29.7540 O   0  0  0  0  0  0  0  0  0  0  0  0
   37.9060   37.3830   21.8140 C   0  0  0  0  0  0  0  0  0  0  0  0
   45.4710   39.2390   27.8340 O   0  0  0  0  0  0  0  0  0  0  0  0
   43.6480   36.0570   28.6450 C   0  0  0  0  0  0  0  0  0  0  0  0
   48.4060   37.1420   29.9150 P   0  0  0  0  0  0  0  0  0  0  0  0
   46.1590   36.4820   28.6080 C   0  0  0  0  0  0  0  0  0  0  0  0
   40.1370   36.9500   26.1630 C   0  0  0  0  0  0  0  0  0  0  0  0
  2  1  1  0
  2  6  1  0
  4  5  2  0
  5 18  1  0
  6 14  1  0
  7  4  1  0
  7  8  1  0
  8  9  1  0
  9 20  1  0
  9 18  1  0
 10  4  1  0
 12 19  2  0
 14 21  1  0
 15 19  1  0
 16  2  1  0
 17  8  2  0
 18  3  2  0
 19 11  1  0
 19 13  1  0
 20 15  1  0
 21 10  1  0
M  END
$$$$

     RDKit          3D

 14 14  0  0  0  0  0  0  0  0999 V2000
   44.2480   38.5680   27.8120 S   0  0  0  0  0  0  0  0  0  0  0  0
   45.5750   36.4450   26.6660 O   0  0  0  0  0  0  0  0  0  0  0  0
   45.9720   37.1570   31.3190 O   0  0  0  0  0  0  0  0  0  0  0  0
   45.0180   38.6320   29.3650 S   0  0  0  0  0  0  0  0  0  0  0  0
   44.2390   36.7910   27.2360 C   0  0  0  0  0  0  0  0  0  0  0  0
   45.3990   36.1090   25.2820 C   0  0  0  0  0  0  0  0  0  0  0  0
   43.4270   36.5640   29.6410 O   0  0  0  0  0  0  0  0  0  0  0  0
   45.9390   37.4370   30.0380 C   0  0  0  0  0  0  0  0  0  0  0  0
   44.4010   36.1230   28.6570 C   0  0  0  0  0  0  0  0  0  0  0  0
   44.1020   36.2380   24.7240 O   0  0  0  0  0  0  0  0  0  0  0  0
   42.6170   39.2110   27.9630 C   0  0  0  0  0  0  0  0  0  0  0  0
   46.1720   35.0990   29.6340 O   0  0  0  0  0  0  0  0  0  0  0  0
   46.0300   36.1850   29.0690 C   0  0  0  0  0  0  0  0  0  0  0  0
   42.9480   36.6020   26.3690 C   0  0  0  0  0  0  0  0  0  0  0  0
  1 11  1  0
  1  4  1  0
  2  5  1  0
  4  8  1  0
  5 14  1  0
  5  1  1  0
  5  9  1  0
  6  2  1  0
  8  3  2  0
  9 13  1  0
  9  7  1  0
 10  6  1  0
 13 12  1  0
 13  8  1  0
M  END
$$$$

     RDKit          3D

  4  3  0  0  0  0  0  0  0  0999 V2000
   45.5240   35.9930   28.5500 C   0  0  0  0  0  0  0  0  0  0  0  0
   47.2870   35.8450   30.2760 O   0  0  0  0  0  0  0  0  0  0  0  0
   44.3600   35.4270   29.2370 N   0  0  0  0  0  0  0  0  0  0  0  0
   46.7880   35.2670   29.0200 C   0  0  0  0  0  0  0  0  0  0  0  0
  1  4  1  0
  1  3  1  0
  4  2  1  0
M  END
$$$$

     RDKit          3D

 23 25  0  0  0  0  0  0  0  0999 V2000
   43.7400   35.8870   28.7620 C   0  0  0  0  0  0  0  0  0  0  0  0
   45.8740   36.2300   30.9390 C   0  0  0  0  0  0  0  0  0  0  0  0
   40.5780   39.9160   26.9500 C   0  0  0  0  0  0  0  0  0  0  0  0
   41.8840   36.4250   28.5160 C   0  0  0  0  0  0  0  0  0  0  0  0
   42.6680   37.7090   28.7760 C   0  0  0  0  0  0  0  0  0  0  0  0
   47.3630   36.5740   31.2730 C   0  0  0  0  0  0  0  0  0  0  0  0
   45.5370   34.8610   30.2470 C   0  0  0  0  0  0  0  0  0  0  0  0
   45.3870   37.3170   29.9890 C   0  0  0  0  0  0  0  0  0  0  0  0
   43.8070   37.1180   29.6880 C   0  0  0  0  0  0  0  0  0  0  0  0
   39.1980   37.9490   23.6180 C   0  0  0  0  0  0  0  0  0  0  0  0
   42.8600   40.4810   27.1690 O   0  0  0  0  0  0  0  0  0  0  0  0
   43.4400   37.8900   27.5030 O   0  0  0  0  0  0  0  0  0  0  0  0
   39.4670   37.5260   22.1850 C   0  0  0  0  0  0  0  0  0  0  0  0
   40.7380   36.6750   27.2700 C   0  0  0  0  0  0  0  0  0  0  0  0
   47.5700   37.7380   31.7170 O   0  0  0  0  0  0  0  0  0  0  0  0
   48.2940   35.7550   31.3870 O   0  0  0  0  0  0  0  0  0  0  0  0
   42.5940   38.2880   26.3860 C   0  0  0  0  0  0  0  0  0  0  0  0
   38.3540   36.3510   24.3530 S   0  0  0  0  0  0  0  0  0  0  0  0
   44.8940   35.0130   28.8460 C   0  0  0  0  0  0  0  0  0  0  0  0
   41.5180   37.2170   26.0080 C   0  0  0  0  0  0  0  0  0  0  0  0
   38.2720   39.2370   23.5770 C   0  0  0  0  0  0  0  0  0  0  0  0
   40.5290   38.1040   24.6150 S   0  0  0  0  0  0  0  0  0  0  0  0
   42.0350   39.6010   26.8670 C   0  0  0  0  0  0  0  0  0  0  0  0
  1 19  1  0
  1  9  1  0
  2  6  1  0
  4 14  1  0
  4  1  1  0
  4  5  1  0
  5 12  1  0
  5  9  1  0
  6 16  2  0
  6 15  1  0
  7  2  1  0
  8  2  1  0
  9  8  1  0
 10 18  1  0
 10 22  1  0
 13 10  1  0
 17 23  1  0
 17 12  1  0
 19  7  1  0
 20 22  1  0
 20 17  1  0
 20 14  1  0
 21 10  1  0
 23  3  1  0
 23 11  2  0
M  END
$$$$

     RDKit          3D

  9  8  0  0  0  0  0  0  0  0999 V2000
   45.2100   34.7120   29.1880 O   0  0  0  0  0  0  0  0  0  0  0  0
   45.6920   36.7300   26.7870 O   0  0  0  0  0  0  0  0  0  0  0  0
   44.3260   35.6880   28.5750 C   0  0  0  0  0  0  0  0  0  0  0  0
   45.8290   39.2300   28.0630 O   0  0  0  0  0  0  0  0  0  0  0  0
   43.5880   38.2110   28.6510 O   0  0  0  0  0  0  0  0  0  0  0  0
   45.6680   37.8350   30.1340 O   0  0  0  0  0  0  0  0  0  0  0  0
   45.0100   38.0760   28.6280 C   0  0  0  0  0  0  0  0  0  0  0  0
   45.2180   36.6700   27.8550 C   0  0  0  0  0  0  0  0  0  0  0  0
   45.2900   40.4660   28.7570 C   0  0  0  0  0  0  0  0  0  0  0  0
  2  8  2  0
  3  1  1  0
  4  7  1  0
  4  9  1  0
  7  5  1  0
  7  6  1  0
  8  3  1  0
  8  7  1  0
M  END
$$$$

     RDKit          3D

  8  7  0  0  0  0  0  0  0  0999 V2000
   45.2060   39.1630   30.0790 S   0  0  0  0  0  0  0  0  0  0  0  0
   43.8750   38.1210   27.8950 C   0  0  0  0  0  0  0  0  0  0  0  0
   44.2460   38.9900   26.6840 C   0  0  0  0  0  0  0  0  0  0  0  0
   43.6700   39.0080   29.1160 C   0  0  0  0  0  0  0  0  0  0  0  0
   43.5390   39.3250   25.7360 C   0  0  0  0  0  0  0  0  0  0  0  0
   44.0490   36.0250   29.1110 O   0  0  0  0  0  0  0  0  0  0  0  0
   43.8560   36.5640   28.0140 C   0  0  0  0  0  0  0  0  0  0  0  0
   43.7400   35.9160   26.9600 O   0  0  0  0  0  0  0  0  0  0  0  0
  2  3  1  0
  2  7  1  0
  2  4  1  0
  4  1  1  0
  5  3  2  0
  7  6  1  0
  8  7  2  0
M  END
$$$$

     RDKit          3D

 10 10  0  0  0  0  0  0  0  0999 V2000
   43.0680   37.6490   30.1380 C   0  0  0  0  0  0  0  0  0  0  0  0
   44.5060   36.2940   28.6260 C   0  0  0  0  0  0  0  0  0  0  0  0
   42.9520   37.7410   26.8030 C   0  0  0  0  0  0  0  0  0  0  0  0
   43.0620   36.6180   27.8610 C   0  0  0  0  0  0  0  0  0  0  0  0
   44.0170   34.9770   28.7600 O   0  0  0  0  0  0  0  0  0  0  0  0
   44.4730   36.9770   30.0220 C   0  0  0  0  0  0  0  0  0  0  0  0
   47.1160   35.9540   30.3130 O   0  0  0  0  0  0  0  0  0  0  0  0
   42.1780   36.8640   29.1870 C   0  0  0  0  0  0  0  0  0  0  0  0
   46.1890   36.0270   28.9900 C   0  0  0  0  0  0  0  0  0  0  0  0
   46.6640   36.9820   28.1430 O   0  0  0  0  0  0  0  0  0  0  0  0
  2  5  1  0
  2  9  1  0
  2  6  1  0
  4  3  1  0
  4  2  1  0
  4  8  1  0
  6  1  1  0
  8  1  1  0
  9  7  1  0
 10  9  1  0
M  END
$$$$

     RDKit          3D

  9  8  0  0  0  0  0  0  0  0999 V2000
   41.9640   41.2700   23.5900 O   0  0  0  0  0  0  0  0  0  0  0  0
   45.0290   39.2130   28.4860 C   0  0  0  0  0  0  0  0  0  0  0  0
   44.3760   37.5580   26.7140 C   0  0  0  0  0  0  0  0  0  0  0  0
   40.5900   40.6270   25.1420 O   0  0  0  0  0  0  0  0  0  0  0  0
   42.6200   39.7210   25.9190 C   0  0  0  0  0  0  0  0  0  0  0  0
   43.1610   38.6850   24.9720 C   0  0  0  0  0  0  0  0  0  0  0  0
   44.3120   38.0010   27.9800 C   0  0  0  0  0  0  0  0  0  0  0  0
   41.7800   40.5600   24.8600 C   0  0  0  0  0  0  0  0  0  0  0  0
   44.5410   38.3500   25.3220 C   0  0  0  0  0  0  0  0  0  0  0  0
  1  8  2  0
  3  7  1  0
  6  9  1  0
  6  5  1  0
  7  2  1  0
  8  4  1  0
  8  5  1  0
  9  3  1  0
M  END
$$$$

     RDKit          3D

 26 27  0  0  0  0  0  0  0  0999 V2000
   45.5720   37.3460   32.4380 C   0  0  0  0  0  0  0  0  0  0  0  0
   40.9810   37.0740   27.5690 C   0  0  0  0  0  0  0  0  0  0  0  0
   41.1160   33.8260   29.6160 C   0  0  0  0  0  0  0  0  0  0  0  0
   39.8150   37.5630   25.5370 C   0  0  0  0  0  0  0  0  0  0  0  0
   45.5570   38.6190   32.9580 N   0  0  0  0  0  0  0  0  0  0  0  0
   42.8380   35.6870   30.1170 C   0  0  0  0  0  0  0  0  0  0  0  0
   39.1350   39.9350   25.0510 C   0  0  0  0  0  0  0  0  0  0  0  0
   40.8340   36.0960   28.6750 C   0  0  0  0  0  0  0  0  0  0  0  0
   46.1690   34.9110   28.6330 O   0  0  0  0  0  0  0  0  0  0  0  0
   38.0760   42.0800   24.7370 C   0  0  0  0  0  0  0  0  0  0  0  0
   47.4420   36.3650   29.7930 O   0  0  0  0  0  0  0  0  0  0  0  0
   45.0990   36.5770   29.8970 C   0  0  0  0  0  0  0  0  0  0  0  0
   39.0220   41.2210   25.6480 N   0  0  0  0  0  0  0  0  0  0  0  0
   45.3590   38.8140   30.7760 N   0  0  0  0  0  0  0  0  0  0  0  0
   45.0930   39.2610   29.3750 O   0  0  0  0  0  0  0  0  0  0  0  0
   39.8940   38.9220   25.9300 C   0  0  0  0  0  0  0  0  0  0  0  0
   40.4690   36.6190   26.3100 C   0  0  0  0  0  0  0  0  0  0  0  0
   41.6040   35.1430   29.4640 C   0  0  0  0  0  0  0  0  0  0  0  0
   43.8470   36.1990   29.1070 C   0  0  0  0  0  0  0  0  0  0  0  0
   46.3170   35.9030   29.3820 C   0  0  0  0  0  0  0  0  0  0  0  0
   40.7950   39.4930   26.9280 C   0  0  0  0  0  0  0  0  0  0  0  0
   45.4290   39.5200   31.9410 C   0  0  0  0  0  0  0  0  0  0  0  0
   42.3870   36.7750   30.5590 O   0  0  0  0  0  0  0  0  0  0  0  0
   43.3590   34.7780   31.1540 C   0  0  0  0  0  0  0  0  0  0  0  0
   45.2680   37.4380   31.0980 C   0  0  0  0  0  0  0  0  0  0  0  0
   41.3980   38.6260   27.8440 C   0  0  0  0  0  0  0  0  0  0  0  0
  1  5  1  0
  2 26  1  0
  2  8  1  0
  4 16  1  0
  4 17  2  0
  6 23  1  0
  6 24  1  0
  7 13  1  0
  8 18  1  0
  9 20  2  0
 10 13  1  0
 12 19  1  0
 14 25  1  0
 14 22  1  0
 15 14  1  0
 16  7  1  0
 16 21  1  0
 17  2  1  0
 18  3  1  0
 18  6  1  0
 19  6  1  0
 20 11  1  0
 20 12  1  0
 21 26  1  0
 22  5  1  0
 25 12  1  0
 25  1  1  0
M  END
$$$$

     RDKit          3D

 10 10  0  0  0  0  0  0  0  0999 V2000
   45.1430   37.6130   31.2460 O   0  0  0  0  0  0  0  0  0  0  0  0
   44.9390   39.2520   28.7340 O   0  0  0  0  0  0  0  0  0  0  0  0
   45.4020   38.6700   27.5050 O   0  0  0  0  0  0  0  0  0  0  0  0
   45.0560   35.1200   29.9430 O   0  0  0  0  0  0  0  0  0  0  0  0
   44.6230   36.2440   28.0000 C   0  0  0  0  0  0  0  0  0  0  0  0
   44.3610   37.5500   27.2740 C   0  0  0  0  0  0  0  0  0  0  0  0
   44.6860   36.1380   29.3210 C   0  0  0  0  0  0  0  0  0  0  0  0
   44.0280   38.7350   29.3810 C   0  0  0  0  0  0  0  0  0  0  0  0
   44.1860   37.3500   30.2280 C   0  0  0  0  0  0  0  0  0  0  0  0
   44.2670   37.3210   26.0760 N   0  0  0  0  0  0  0  0  0  0  0  0
  2  8  1  0
  3  2  1  0
  5  7  1  0
  6 10  1  0
  6  3  1  0
  6  5  1  0
  7  4  2  0
  7  9  1  0
  8  9  1  0
  9  1  1  0
M  END
$$$$

     RDKit          3D

 14 15  0  0  0  0  0  0  0  0999 V2000
   45.4340   37.8460   28.2130 C   0  0  0  0  0  0  0  0  0  0  0  0
   46.8410   36.2180   29.7090 O   0  0  0  0  0  0  0  0  0  0  0  0
   43.1670   38.1790   26.7050 O   0  0  0  0  0  0  0  0  0  0  0  0
   42.3960   37.3050   30.0240 N   0  0  0  0  0  0  0  0  0  0  0  0
   43.5860   37.4750   29.3630 C   0  0  0  0  0  0  0  0  0  0  0  0
   43.9560   35.8540   30.8200 C   0  0  0  0  0  0  0  0  0  0  0  0
   44.0100   37.9440   27.9780 C   0  0  0  0  0  0  0  0  0  0  0  0
   44.3900   36.1500   29.6320 C   0  0  0  0  0  0  0  0  0  0  0  0
   42.8970   37.5670   25.3710 C   0  0  0  0  0  0  0  0  0  0  0  0
   42.8050   36.4640   31.1070 N   0  0  0  0  0  0  0  0  0  0  0  0
   46.6760   40.0510   28.0970 O   0  0  0  0  0  0  0  0  0  0  0  0
   46.4060   38.7110   27.5350 C   0  0  0  0  0  0  0  0  0  0  0  0
   43.4640   36.1370   25.4560 C   0  0  0  0  0  0  0  0  0  0  0  0
   45.5040   36.6410   29.2870 C   0  0  0  0  0  0  0  0  0  0  0  0
  1 14  2  0
  4 10  1  0
  5  8  1  0
  5  4  1  0
  6 10  1  0
  7  3  1  0
  7  1  1  0
  7  5  1  0
  8  6  1  0
  9 13  1  0
  9  3  1  0
 12 11  1  0
 12  1  1  0
 14  8  1  0
 14  2  1  0
M  END
$$$$

     RDKit          3D

 19 20  0  0  0  0  0  0  0  0999 V2000
   39.8520   37.3700   25.6440 O   0  0  0  0  0  0  0  0  0  0  0  0
   45.4470   39.2550   25.6740 C   0  0  0  0  0  0  0  0  0  0  0  0
   44.1390   35.7580   28.7300 C   0  0  0  0  0  0  0  0  0  0  0  0
   44.7210   37.1040   28.7360 C   0  0  0  0  0  0  0  0  0  0  0  0
   42.3700   38.1160   25.5000 C   0  0  0  0  0  0  0  0  0  0  0  0
   42.9040   36.0270   29.7060 C   0  0  0  0  0  0  0  0  0  0  0  0
   46.7380   35.7070   29.9910 O   0  0  0  0  0  0  0  0  0  0  0  0
   42.3980   37.4420   27.8180 C   0  0  0  0  0  0  0  0  0  0  0  0
   47.0080   36.6110   29.1810 C   0  0  0  0  0  0  0  0  0  0  0  0
   42.5310   37.4510   29.3610 N   0  0  0  0  0  0  0  0  0  0  0  0
   43.8750   37.7100   27.5340 C   0  0  0  0  0  0  0  0  0  0  0  0
   45.3510   40.8260   25.8670 C   0  0  0  0  0  0  0  0  0  0  0  0
   46.6340   38.7940   26.1530 O   0  0  0  0  0  0  0  0  0  0  0  0
   48.1040   36.9480   28.7110 O   0  0  0  0  0  0  0  0  0  0  0  0
   41.9070   37.5920   26.5480 C   0  0  0  0  0  0  0  0  0  0  0  0
   45.9640   37.1140   28.2820 C   0  0  0  0  0  0  0  0  0  0  0  0
   44.2210   38.8250   26.5700 C   0  0  0  0  0  0  0  0  0  0  0  0
   40.5450   36.8240   26.4620 C   0  0  0  0  0  0  0  0  0  0  0  0
   43.1640   39.1840   25.5530 O   0  0  0  0  0  0  0  0  0  0  0  0
  1 18  1  0
  2 12  1  0
  2 13  1  0
  2 17  1  0
  3  4  1  0
  3  6  1  0
  4 16  1  0
  5 19  1  0
  5 15  1  0
  8 10  1  0
  9  7  1  0
 10  6  1  0
 11  8  1  0
 11  4  1  0
 14  9  2  0
 15  8  1  0
 16  9  1  0
 17 11  1  0
 18 15  1  0
 19 17  1  0
M  END
$$$$

     RDKit          3D

 21 21  0  0  0  0  0  0  0  0999 V2000
   43.9700   36.2090   31.2260 O   0  0  0  0  0  0  0  0  0  0  0  0
   46.4130   36.6340   27.9100 C   0  0  0  0  0  0  0  0  0  0  0  0
   43.3750   36.6570   28.6940 C   0  0  0  0  0  0  0  0  0  0  0  0
   41.7570   37.4230   30.2030 O   0  0  0  0  0  0  0  0  0  0  0  0
   42.8960   41.8830   26.8910 C   0  0  0  0  0  0  0  0  0  0  0  0
   41.6330   39.3330   26.8740 C   0  0  0  0  0  0  0  0  0  0  0  0
   45.7010   35.9650   29.3630 C   0  0  0  0  0  0  0  0  0  0  0  0
   47.6170   36.4020   27.7810 O   0  0  0  0  0  0  0  0  0  0  0  0
   40.6280   39.8610   24.5130 C   0  0  0  0  0  0  0  0  0  0  0  0
   43.1580   37.5410   27.6430 N   0  0  0  0  0  0  0  0  0  0  0  0
   42.0950   40.7040   27.3130 C   0  0  0  0  0  0  0  0  0  0  0  0
   40.8840   41.3280   24.9940 C   0  0  0  0  0  0  0  0  0  0  0  0
   42.2980   38.3950   27.8080 C   0  0  0  0  0  0  0  0  0  0  0  0
   41.2350   38.8180   25.4920 C   0  0  0  0  0  0  0  0  0  0  0  0
   41.5160   37.6510   25.2310 O   0  0  0  0  0  0  0  0  0  0  0  0
   44.1830   35.7670   28.8820 C   0  0  0  0  0  0  0  0  0  0  0  0
   42.2390   42.0670   25.4600 C   0  0  0  0  0  0  0  0  0  0  0  0
   45.1550   36.1660   30.7960 C   0  0  0  0  0  0  0  0  0  0  0  0
   43.0110   34.7100   28.6760 O   0  0  0  0  0  0  0  0  0  0  0  0
   45.7390   37.5820   27.4040 O   0  0  0  0  0  0  0  0  0  0  0  0
   41.9470   36.5560   29.3580 C   0  0  0  0  0  0  0  0  0  0  0  0
  2  7  1  0
  3 16  1  0
  3 21  1  0
  5 11  1  0
  6 11  1  0
  6 13  1  0
  7 18  1  0
  8  2  1  0
  9 12  1  0
  9 14  1  0
 10 13  2  3
 10  3  1  0
 12 17  1  0
 14  6  1  0
 15 14  2  0
 16 19  1  0
 16  7  1  0
 17  5  1  0
 18  1  2  0
 20  2  2  0
 21  4  1  0
M  END
$$$$

     RDKit          3D

  7  6  0  0  0  0  0  0  0  0999 V2000
   44.3010   37.0540   30.4920 O   0  0  0  0  0  0  0  0  0  0  0  0
   45.9020   34.7910   28.6560 O   0  0  0  0  0  0  0  0  0  0  0  0
   44.6210   37.9640   28.4530 C   0  0  0  0  0  0  0  0  0  0  0  0
   44.6570   35.4600   28.7730 C   0  0  0  0  0  0  0  0  0  0  0  0
   45.5080   38.7550   28.0570 O   0  0  0  0  0  0  0  0  0  0  0  0
   44.9730   36.8320   29.3240 C   0  0  0  0  0  0  0  0  0  0  0  0
   43.4480   38.1320   28.2030 O   0  0  0  0  0  0  0  0  0  0  0  0
  2  4  1  0
  3  6  1  0
  4  6  1  0
  5  3  2  0
  6  1  1  0
  7  3  1  0
M  END
$$$$

     RDKit          3D

 18 20  0  0  0  0  0  0  0  0999 V2000
   42.7370   37.5460   27.9730 C   0  0  0  0  0  0  0  0  0  0  0  0
   44.9780   38.1040   28.2490 C   0  0  0  0  0  0  0  0  0  0  0  0
   42.9170   36.3000   28.6460 C   0  0  0  0  0  0  0  0  0  0  0  0
   42.8210   40.9130   23.3020 N   0  0  0  0  0  0  0  0  0  0  0  0
   41.6770   35.5040   28.8050 C   0  0  0  0  0  0  0  0  0  0  0  0
   44.1760   39.6970   27.1530 C   0  0  0  0  0  0  0  0  0  0  0  0
   44.0080   40.0310   23.5110 N   0  0  0  0  0  0  0  0  0  0  0  0
   46.5390   36.8100   29.6560 C   0  0  0  0  0  0  0  0  0  0  0  0
   46.7000   37.5120   30.6220 O   0  0  0  0  0  0  0  0  0  0  0  0
   41.3890   35.5860   30.2520 N   0  0  0  0  0  0  0  0  0  0  0  0
   42.8290   38.2560   24.0520 C   0  0  0  0  0  0  0  0  0  0  0  0
   44.1440   35.9670   29.2220 C   0  0  0  0  0  0  0  0  0  0  0  0
   45.3270   38.9860   27.3570 N   0  0  0  0  0  0  0  0  0  0  0  0
   43.6200   39.3230   24.7440 C   0  0  0  0  0  0  0  0  0  0  0  0
   43.6540   38.4810   27.6900 C   0  0  0  0  0  0  0  0  0  0  0  0
   45.1430   36.8500   28.9920 C   0  0  0  0  0  0  0  0  0  0  0  0
   43.7270   40.2360   25.8950 C   0  0  0  0  0  0  0  0  0  0  0  0
   47.6230   36.3160   29.3150 O   0  0  0  0  0  0  0  0  0  0  0  0
  1  3  2  0
  2 16  1  0
  3  5  1  0
  3 12  1  0
  4  7  1  0
  5 10  1  0
  6 17  1  0
  6 13  1  0
  6 15  1  0
  7 14  1  0
  8  9  1  0
 11 14  1  0
 13 15  1  0
 13  2  1  0
 14 17  1  0
 15  1  1  0
 15  2  1  0
 16 12  2  0
 16  8  1  0
 18  8  2  0
M  END
$$$$

     RDKit          3D

 10  9  0  0  0  0  0  0  0  0999 V2000
   44.2090   38.5110   29.3700 C   0  0  0  0  0  0  0  0  0  0  0  0
   44.8510   38.5610   30.7890 C   0  0  0  0  0  0  0  0  0  0  0  0
   43.3390   36.3500   28.9730 O   0  0  0  0  0  0  0  0  0  0  0  0
   46.0850   38.5470   30.8030 O   0  0  0  0  0  0  0  0  0  0  0  0
   45.5070   34.9210   29.1970 O   0  0  0  0  0  0  0  0  0  0  0  0
   44.7880   39.7490   28.7510 C   0  0  0  0  0  0  0  0  0  0  0  0
   46.8060   36.6330   29.5840 O   0  0  0  0  0  0  0  0  0  0  0  0
   44.0800   38.5920   31.7770 O   0  0  0  0  0  0  0  0  0  0  0  0
   45.6830   36.1910   29.1750 C   0  0  0  0  0  0  0  0  0  0  0  0
   44.5760   37.1600   28.7360 C   0  0  0  0  0  0  0  0  0  0  0  0
  1  6  1  0
  1  2  1  0
  2  4  2  0
  2  8  1  0
  9  5  2  0
  9  7  1  0
 10  3  1  0
 10  9  1  0
 10  1  1  0
M  END
$$$$

     RDKit          3D

 19 20  0  0  0  0  0  0  0  0999 V2000
   46.9060   36.4340   29.0620 P   0  0  0  0  0  0  0  0  0  0  0  0
   44.3540   36.0370   29.7530 C   0  0  0  0  0  0  0  0  0  0  0  0
   42.4280   37.0490   26.4630 C   0  0  0  0  0  0  0  0  0  0  0  0
   40.6110   36.7960   28.1870 C   0  0  0  0  0  0  0  0  0  0  0  0
   40.4920   39.7380   25.7620 C   0  0  0  0  0  0  0  0  0  0  0  0
   40.8980   37.3220   26.6770 C   0  0  0  0  0  0  0  0  0  0  0  0
   40.4370   37.6800   24.2120 C   0  0  0  0  0  0  0  0  0  0  0  0
   47.0990   35.3660   27.9960 O   0  0  0  0  0  0  0  0  0  0  0  0
   40.5270   40.5340   24.7940 O   0  0  0  0  0  0  0  0  0  0  0  0
   46.6000   37.8340   28.3560 O   0  0  0  0  0  0  0  0  0  0  0  0
   40.5270   38.3260   25.5500 N   0  0  0  0  0  0  0  0  0  0  0  0
   40.6550   40.2690   27.1730 C   0  0  0  0  0  0  0  0  0  0  0  0
   44.2590   35.9970   28.3290 O   0  0  0  0  0  0  0  0  0  0  0  0
   43.6940   37.2920   30.3050 C   0  0  0  0  0  0  0  0  0  0  0  0
   48.1860   36.2570   29.7940 O   0  0  0  0  0  0  0  0  0  0  0  0
   45.7910   35.9350   29.9990 O   0  0  0  0  0  0  0  0  0  0  0  0
   42.1790   37.1800   30.1310 C   0  0  0  0  0  0  0  0  0  0  0  0
   41.9290   36.4490   28.7950 C   0  0  0  0  0  0  0  0  0  0  0  0
   43.0960   36.8020   27.8720 C   0  0  0  0  0  0  0  0  0  0  0  0
  1 15  1  0
  1 16  1  0
  2 16  1  0
  2 14  1  0
  3  6  1  0
  5 12  1  0
  6 11  1  0
  6  4  1  0
  7 11  1  0
  8  1  2  0
  9  5  2  0
 10  1  1  0
 11  5  1  0
 13  2  1  0
 17 14  1  0
 18  4  1  0
 18 17  1  0
 19  3  1  0
 19 13  1  0
 19 18  1  0
M  END
$$$$

     RDKit          3D

 16 18  0  0  0  0  0  0  0  0999 V2000
   42.6700   39.0820   26.9620 C   0  0  0  0  0  0  0  0  0  0  0  0
   43.7570   35.9480   29.7170 C   0  0  0  0  0  0  0  0  0  0  0  0
   43.1340   36.7580   27.4690 C   0  0  0  0  0  0  0  0  0  0  0  0
   46.1380   36.1550   29.8880 C   0  0  0  0  0  0  0  0  0  0  0  0
   44.2220   36.7510   28.5420 C   0  0  0  0  0  0  0  0  0  0  0  0
   43.9080   37.0180   26.1050 C   0  0  0  0  0  0  0  0  0  0  0  0
   42.0270   40.8460   25.2770 C   0  0  0  0  0  0  0  0  0  0  0  0
   43.4620   34.6010   29.7810 O   0  0  0  0  0  0  0  0  0  0  0  0
   41.6450   40.1020   26.5380 N   0  0  0  0  0  0  0  0  0  0  0  0
   43.4450   38.4390   25.7930 C   0  0  0  0  0  0  0  0  0  0  0  0
   45.5970   36.2990   28.4780 C   0  0  0  0  0  0  0  0  0  0  0  0
   44.5260   37.0010   31.9530 C   0  0  0  0  0  0  0  0  0  0  0  0
   42.2140   37.9030   27.8740 C   0  0  0  0  0  0  0  0  0  0  0  0
   47.4800   36.1140   29.9450 O   0  0  0  0  0  0  0  0  0  0  0  0
   44.9260   36.2350   30.7440 C   0  0  0  0  0  0  0  0  0  0  0  0
   42.2700   35.9170   29.7410 C   0  0  0  0  0  0  0  0  0  0  0  0
  1  9  1  0
  1 13  1  0
  2 16  1  0
  2  8  1  0
  2 15  1  0
  3  6  1  0
  3 13  1  0
  3  5  1  0
  4 14  1  0
  4 15  1  0
  5 11  1  0
  5  2  1  0
  7  9  1  0
 10  6  1  0
 10  1  1  0
 11  4  1  0
 15 12  1  0
 16  8  1  0
M  END
$$$$

     RDKit          3D

 18 18  0  0  0  0  0  0  0  0999 V2000
   42.3440   37.6020   27.7260 C   0  0  0  0  0  0  0  0  0  0  0  0
   41.4230   37.3710   26.4390 C   0  0  0  0  0  0  0  0  0  0  0  0
   41.3100   36.2710   25.8970 O   0  0  0  0  0  0  0  0  0  0  0  0
   41.4090   36.6860   29.7920 O   0  0  0  0  0  0  0  0  0  0  0  0
   43.5230   37.3800   30.1360 O   0  0  0  0  0  0  0  0  0  0  0  0
   42.4810   39.1580   27.7980 C   0  0  0  0  0  0  0  0  0  0  0  0
   44.5840   36.8530   27.2310 O   0  0  0  0  0  0  0  0  0  0  0  0
   39.8150   36.8080   24.0690 C   0  0  0  0  0  0  0  0  0  0  0  0
   39.6450   39.5020   23.8180 C   0  0  0  0  0  0  0  0  0  0  0  0
   43.7000   39.6620   28.4510 C   0  0  0  0  0  0  0  0  0  0  0  0
   39.9300   36.6520   22.6890 O   0  0  0  0  0  0  0  0  0  0  0  0
   40.6380   39.7160   26.3470 C   0  0  0  0  0  0  0  0  0  0  0  0
   40.6540   38.4330   25.8210 C   0  0  0  0  0  0  0  0  0  0  0  0
   37.9270   39.4840   24.3010 S   0  0  0  0  0  0  0  0  0  0  0  0
   43.2440   36.3410   27.4900 C   0  0  0  0  0  0  0  0  0  0  0  0
   41.5040   40.0240   27.3580 N   0  0  0  0  0  0  0  0  0  0  0  0
   40.2810   38.2250   24.3560 C   0  0  0  0  0  0  0  0  0  0  0  0
   42.4150   37.2360   29.3820 C   0  0  0  0  0  0  0  0  0  0  0  0
  1 15  1  0
  1  6  1  0
  1 18  1  0
  2  1  1  0
  3  2  2  0
  6 10  1  0
  7 15  1  0
  8 17  1  0
  9 14  1  0
 11  8  1  0
 12 16  2  0
 13 17  1  0
 13 12  1  0
 13  2  1  0
 16  6  1  0
 17  9  1  0
 18  4  2  0
 18  5  1  0
M  END
$$$$
