
     RDKit          3D

 11 10  0  0  0  0  0  0  0  0999 V2000
   32.8680   39.3520   20.9850 C   0  0  0  0  0  0  0  0  0  0  0  0
   31.6050   40.0260   20.9880 O   0  0  0  0  0  0  0  0  0  0  0  0
   36.3180   39.8130   23.0010 C   0  0  0  0  0  0  0  0  0  0  0  0
   33.3120   37.9440   23.8000 O   0  0  0  0  0  0  0  0  0  0  0  0
   31.9750   38.2560   23.2160 C   0  0  0  0  0  0  0  0  0  0  0  0
   31.7170   39.5830   23.6000 O   0  0  0  0  0  0  0  0  0  0  0  0
   36.4570   37.3970   22.4950 N   0  0  0  0  0  0  0  0  0  0  0  0
   35.8390   38.4720   23.4420 C   0  0  0  0  0  0  0  0  0  0  0  0
   32.6240   36.5120   21.9430 O   0  0  0  0  0  0  0  0  0  0  0  0
   34.3220   38.6470   23.2790 C   0  0  0  0  0  0  0  0  0  0  0  0
   32.5720   37.9310   21.7520 C   0  0  0  0  0  0  0  0  0  0  0  0
  1  2  1  0
  1 11  1  0
  5  6  1  0
  5  4  1  0
  7  8  1  0
  8  3  1  0
 10  8  1  0
 10  4  1  0
 11  9  1  0
 11  5  1  0
M  END
$$$$

     RDKit          3D

 20 20  0  0  0  0  0  0  0  0999 V2000
   36.6440   38.4380   22.3520 S   0  0  0  0  0  0  0  0  0  0  0  0
   33.1520   39.4720   23.8000 O   0  0  0  0  0  0  0  0  0  0  0  0
   39.8990   42.2120   22.2670 O   0  0  0  0  0  0  0  0  0  0  0  0
   40.1030   38.3090   22.2560 O   0  0  0  0  0  0  0  0  0  0  0  0
   38.9330   41.1550   24.6760 C   0  0  0  0  0  0  0  0  0  0  0  0
   32.3900   38.2920   23.5270 C   0  0  0  0  0  0  0  0  0  0  0  0
   38.0010   39.2570   23.1240 C   0  0  0  0  0  0  0  0  0  0  0  0
   33.1190   36.1740   20.7190 C   0  0  0  0  0  0  0  0  0  0  0  0
   35.2780   38.2230   23.4920 C   0  0  0  0  0  0  0  0  0  0  0  0
   34.9510   40.5220   23.1410 C   0  0  0  0  0  0  0  0  0  0  0  0
   35.9930   37.7510   24.5900 O   0  0  0  0  0  0  0  0  0  0  0  0
   40.1560   40.7950   22.5560 C   0  0  0  0  0  0  0  0  0  0  0  0
   34.5070   39.3810   24.0720 C   0  0  0  0  0  0  0  0  0  0  0  0
   35.5340   40.4700   22.1430 O   0  0  0  0  0  0  0  0  0  0  0  0
   30.9260   36.1970   21.4960 C   0  0  0  0  0  0  0  0  0  0  0  0
   37.8830   40.3260   24.2710 C   0  0  0  0  0  0  0  0  0  0  0  0
   40.2630   40.7630   24.0600 C   0  0  0  0  0  0  0  0  0  0  0  0
   32.2640   37.9510   21.9980 C   0  0  0  0  0  0  0  0  0  0  0  0
   32.2710   36.5090   21.8770 N   0  0  0  0  0  0  0  0  0  0  0  0
   39.2750   39.5220   22.2100 C   0  0  0  0  0  0  0  0  0  0  0  0
  1  9  1  0
  2 13  1  0
  6  2  1  0
  7  1  1  0
  7 16  1  0
  8 19  1  0
  9 13  1  0
  9 11  1  0
 12  3  1  0
 12 17  1  0
 13 10  1  0
 14 10  2  0
 15 19  1  0
 16  5  1  0
 17  5  1  0
 18  6  1  0
 19 18  1  0
 20  4  1  0
 20 12  1  0
 20  7  1  0
M  END
$$$$

     RDKit          3D

 11 11  0  0  0  0  0  0  0  0999 V2000
   34.6320   39.1610   23.8720 C   0  0  0  0  0  0  0  0  0  0  0  0
   35.9030   40.1560   21.1490 O   0  0  0  0  0  0  0  0  0  0  0  0
   35.8820   37.0150   24.9340 C   0  0  0  0  0  0  0  0  0  0  0  0
   35.5770   38.7830   21.5190 C   0  0  0  0  0  0  0  0  0  0  0  0
   34.6010   34.8240   25.8520 C   0  0  0  0  0  0  0  0  0  0  0  0
   34.9230   36.4820   25.9520 N   0  0  0  0  0  0  0  0  0  0  0  0
   35.7370   37.9420   23.8160 N   0  0  0  0  0  0  0  0  0  0  0  0
   35.5120   40.7290   22.1510 C   0  0  0  0  0  0  0  0  0  0  0  0
   36.5200   38.0910   22.6660 C   0  0  0  0  0  0  0  0  0  0  0  0
   36.9460   36.3710   25.0720 O   0  0  0  0  0  0  0  0  0  0  0  0
   34.8930   40.3970   23.3470 C   0  0  0  0  0  0  0  0  0  0  0  0
  2  4  1  0
  2  8  1  0
  3 10  2  0
  3  6  1  0
  4  9  1  0
  5  6  1  0
  7  1  1  0
  7  3  1  0
  8 11  2  0
  9  7  1  0
 11  1  1  0
M  END
$$$$

     RDKit          3D

 17 18  0  0  0  0  0  0  0  0999 V2000
   29.6190   38.9540   22.8720 Cl  0  0  0  0  0  0  0  0  0  0  0  0
   34.5900   39.0270   22.9370 N   0  0  0  0  0  0  0  0  0  0  0  0
   32.2560   38.9270   23.6090 C   0  0  0  0  0  0  0  0  0  0  0  0
   39.2850   38.9480   23.1980 O   0  0  0  0  0  0  0  0  0  0  0  0
   30.9300   36.6450   21.1800 F   0  0  0  0  0  0  0  0  0  0  0  0
   33.1000   37.4070   22.0080 C   0  0  0  0  0  0  0  0  0  0  0  0
   31.2290   38.4470   22.8170 C   0  0  0  0  0  0  0  0  0  0  0  0
   36.8690   38.7460   22.9190 C   0  0  0  0  0  0  0  0  0  0  0  0
   31.7410   37.4160   21.9290 C   0  0  0  0  0  0  0  0  0  0  0  0
   36.9260   40.1480   24.9020 O   0  0  0  0  0  0  0  0  0  0  0  0
   37.6290   39.3960   21.9960 O   0  0  0  0  0  0  0  0  0  0  0  0
   35.6070   38.0890   22.3390 C   0  0  0  0  0  0  0  0  0  0  0  0
   36.4270   39.9610   23.9180 C   0  0  0  0  0  0  0  0  0  0  0  0
   37.5610   41.0420   23.3560 C   0  0  0  0  0  0  0  0  0  0  0  0
   38.6510   40.1960   22.8330 C   0  0  0  0  0  0  0  0  0  0  0  0
   36.7940   41.8290   22.7100 O   0  0  0  0  0  0  0  0  0  0  0  0
   33.4740   38.4190   23.0260 C   0  0  0  0  0  0  0  0  0  0  0  0
  5  9  1  0
  6 17  1  0
  7  1  1  0
  7  3  1  0
  8 12  1  0
  8 13  1  0
  9  6  1  0
  9  7  2  0
 11 15  1  0
 11  8  1  0
 12  2  1  0
 13 10  1  0
 14 16  1  0
 14 13  1  0
 15  4  1  0
 15 14  1  0
 17  2  1  0
 17  3  1  0
M  END
$$$$

     RDKit          3D

  5  4  0  0  0  0  0  0  0  0999 V2000
   36.5070   40.5430   24.3720 O   0  0  0  0  0  0  0  0  0  0  0  0
   36.4960   39.4580   21.8710 O   0  0  0  0  0  0  0  0  0  0  0  0
   37.0520   39.4390   23.3760 P   0  0  0  0  0  0  0  0  0  0  0  0
   36.6910   38.0210   24.1180 O   0  0  0  0  0  0  0  0  0  0  0  0
   38.5540   39.2880   23.2500 O   0  0  0  0  0  0  0  0  0  0  0  0
  2  3  2  0
  3  4  1  0
  3  1  1  0
  5  3  1  0
M  END
$$$$

     RDKit          3D

  7  6  0  0  0  0  0  0  0  0999 V2000
   34.1470   40.8110   22.6910 C   0  0  0  0  0  0  0  0  0  0  0  0
   35.6280   38.2090   22.6710 C   0  0  0  0  0  0  0  0  0  0  0  0
   34.6540   40.2290   23.7850 C   0  0  0  0  0  0  0  0  0  0  0  0
   35.0200   38.2130   21.5900 O   0  0  0  0  0  0  0  0  0  0  0  0
   35.0850   41.1720   21.5510 C   0  0  0  0  0  0  0  0  0  0  0  0
   34.9490   38.7900   23.9220 C   0  0  0  0  0  0  0  0  0  0  0  0
   36.7730   37.6920   22.7670 O   0  0  0  0  0  0  0  0  0  0  0  0
  1  3  1  0
  2  7  1  0
  2  6  1  0
  3  6  1  0
  4  2  2  0
  5  1  1  0
M  END
$$$$

     RDKit          3D

 13 13  0  0  0  0  0  0  0  0999 V2000
   37.6610   39.7500   23.2660 C   0  0  0  0  0  0  0  0  0  0  0  0
   35.8230   38.4540   22.7420 C   0  0  0  0  0  0  0  0  0  0  0  0
   37.9020   40.7180   21.0940 C   0  0  0  0  0  0  0  0  0  0  0  0
   36.9970   39.7630   21.9500 C   0  0  0  0  0  0  0  0  0  0  0  0
   33.1970   38.2090   22.5520 C   0  0  0  0  0  0  0  0  0  0  0  0
   32.8030   39.3560   21.9490 N   0  0  0  0  0  0  0  0  0  0  0  0
   32.2760   37.4320   22.7900 O   0  0  0  0  0  0  0  0  0  0  0  0
   36.8700   38.4050   23.8390 C   0  0  0  0  0  0  0  0  0  0  0  0
   38.8430   40.1350   23.6660 C   0  0  0  0  0  0  0  0  0  0  0  0
   35.7440   38.0530   24.9140 C   0  0  0  0  0  0  0  0  0  0  0  0
   35.6660   39.7450   20.9560 O   0  0  0  0  0  0  0  0  0  0  0  0
   34.4880   37.8980   22.7760 N   0  0  0  0  0  0  0  0  0  0  0  0
   34.9490   39.2190   25.0570 N   0  0  0  0  0  0  0  0  0  0  0  0
  1  9  2  0
  1  8  1  0
  2 12  1  0
  2  8  1  0
  4  3  1  0
  4  2  1  0
  4  1  1  0
  5 12  1  0
  5  7  2  0
  6  5  1  0
  8 10  1  0
 10 13  1  0
 11  4  1  0
M  END
$$$$

     RDKit          3D

 16 17  0  0  0  0  0  0  0  0999 V2000
   34.4300   36.8770   25.5550 O   0  0  0  0  0  0  0  0  0  0  0  0
   35.2100   39.9160   18.1600 F   0  0  0  0  0  0  0  0  0  0  0  0
   37.6910   37.0650   25.9880 N   0  0  0  0  0  0  0  0  0  0  0  0
   34.2570   39.8890   20.3540 C   0  0  0  0  0  0  0  0  0  0  0  0
   35.6750   36.6400   25.0440 C   0  0  0  0  0  0  0  0  0  0  0  0
   37.2500   38.2040   25.1500 C   0  0  0  0  0  0  0  0  0  0  0  0
   35.4630   38.6530   23.4840 C   0  0  0  0  0  0  0  0  0  0  0  0
   35.1520   39.6080   24.0900 O   0  0  0  0  0  0  0  0  0  0  0  0
   37.9440   39.1880   24.9040 O   0  0  0  0  0  0  0  0  0  0  0  0
   35.0850   39.4070   19.3920 C   0  0  0  0  0  0  0  0  0  0  0  0
   36.2590   37.6360   24.1480 N   0  0  0  0  0  0  0  0  0  0  0  0
   35.3850   38.7360   22.0460 C   0  0  0  0  0  0  0  0  0  0  0  0
   36.2620   38.2020   21.1380 C   0  0  0  0  0  0  0  0  0  0  0  0
   36.8460   35.8600   25.6480 C   0  0  0  0  0  0  0  0  0  0  0  0
   34.3770   39.5360   21.6640 C   0  0  0  0  0  0  0  0  0  0  0  0
   36.2960   38.5950   19.7640 C   0  0  0  0  0  0  0  0  0  0  0  0
  2 10  1  0
  4 15  1  0
  5  1  2  0
  5 14  1  0
  6  3  1  0
  7  8  2  0
  7 11  1  0
  9  6  2  0
 10 16  1  0
 10  4  2  0
 11  5  1  0
 11  6  1  0
 12  7  1  0
 13 12  1  0
 14  3  1  0
 15 12  2  0
 16 13  2  0
M  END
$$$$

     RDKit          3D

  7  6  0  0  0  0  0  0  0  0999 V2000
   34.5320   42.9520   22.3200 S   0  0  0  0  0  0  0  0  0  0  0  0
   36.4780   39.9830   22.5270 F   0  0  0  0  0  0  0  0  0  0  0  0
   34.2620   39.4400   22.8740 F   0  0  0  0  0  0  0  0  0  0  0  0
   35.3260   41.0500   24.0470 F   0  0  0  0  0  0  0  0  0  0  0  0
   35.1620   40.4930   22.8200 C   0  0  0  0  0  0  0  0  0  0  0  0
   34.6570   41.4380   21.7830 C   0  0  0  0  0  0  0  0  0  0  0  0
   35.9290   43.2670   23.0430 C   0  0  0  0  0  0  0  0  0  0  0  0
  1  7  1  0
  2  5  1  0
  5  3  1  0
  5  4  1  0
  6  1  1  0
  6  5  1  0
M  END
$$$$

     RDKit          3D

 15 16  0  0  0  0  0  0  0  0999 V2000
   35.4970   42.8120   21.3350 O   0  0  0  0  0  0  0  0  0  0  0  0
   35.2870   40.8410   19.4050 N   0  0  0  0  0  0  0  0  0  0  0  0
   36.8580   37.9780   22.6160 O   0  0  0  0  0  0  0  0  0  0  0  0
   33.1790   38.1630   22.3510 O   0  0  0  0  0  0  0  0  0  0  0  0
   34.1560   39.1580   22.4280 C   0  0  0  0  0  0  0  0  0  0  0  0
   33.8450   40.7010   19.1000 C   0  0  0  0  0  0  0  0  0  0  0  0
   35.4830   41.3460   23.2170 C   0  0  0  0  0  0  0  0  0  0  0  0
   35.9400   39.9250   23.6450 C   0  0  0  0  0  0  0  0  0  0  0  0
   35.3120   39.5930   24.8900 O   0  0  0  0  0  0  0  0  0  0  0  0
   35.5880   41.6850   21.7590 C   0  0  0  0  0  0  0  0  0  0  0  0
   35.2080   39.1580   21.3070 C   0  0  0  0  0  0  0  0  0  0  0  0
   35.7330   40.5150   20.7710 C   0  0  0  0  0  0  0  0  0  0  0  0
   36.2300   41.3550   18.4040 C   0  0  0  0  0  0  0  0  0  0  0  0
   35.5190   38.6110   22.7870 C   0  0  0  0  0  0  0  0  0  0  0  0
   35.4810   42.2880   24.0900 O   0  0  0  0  0  0  0  0  0  0  0  0
  1 10  2  0
  2 12  1  0
  3 14  1  0
  5  4  1  0
  5 14  1  0
  6  2  1  0
  7  8  1  0
  7 15  2  0
  8  9  1  0
 10  7  1  0
 11  5  1  0
 11 14  1  0
 12 11  1  0
 12 10  1  0
 13  2  1  0
 14  8  1  0
M  END
$$$$

     RDKit          3D

  5  4  0  0  0  0  0  0  0  0999 V2000
   36.7990   38.9860   21.3030 O   0  0  0  0  0  0  0  0  0  0  0  0
   35.7500   39.6250   23.3560 C   0  0  0  0  0  0  0  0  0  0  0  0
   35.0890   38.6910   23.9380 O   0  0  0  0  0  0  0  0  0  0  0  0
   35.4340   40.8320   23.4620 O   0  0  0  0  0  0  0  0  0  0  0  0
   36.9900   39.1680   22.6320 C   0  0  0  0  0  0  0  0  0  0  0  0
  1  5  1  0
  2  4  2  0
  2  3  1  0
  5  2  1  0
M  END
$$$$

     RDKit          3D

  9  9  0  0  0  0  0  0  0  0999 V2000
   34.8680   37.9600   20.7430 C   0  0  0  0  0  0  0  0  0  0  0  0
   33.2720   41.1420   21.6120 C   0  0  0  0  0  0  0  0  0  0  0  0
   34.8110   39.4490   20.3970 C   0  0  0  0  0  0  0  0  0  0  0  0
   33.5620   40.1330   20.6420 O   0  0  0  0  0  0  0  0  0  0  0  0
   35.7710   37.8070   21.9650 C   0  0  0  0  0  0  0  0  0  0  0  0
   35.0870   42.2080   23.3200 O   0  0  0  0  0  0  0  0  0  0  0  0
   34.8160   41.3430   22.3210 C   0  0  0  0  0  0  0  0  0  0  0  0
   35.2970   39.9830   22.9100 N   0  0  0  0  0  0  0  0  0  0  0  0
   36.1190   38.7570   22.7740 C   0  0  0  0  0  0  0  0  0  0  0  0
  1  5  1  0
  2  7  1  0
  3  4  1  0
  3  1  1  0
  4  2  1  0
  5  9  1  0
  7  8  1  0
  7  6  1  0
  9  8  1  0
M  END
$$$$

     RDKit          3D

  9  9  0  0  0  0  0  0  0  0999 V2000
   36.0350   39.0930   20.2860 O   0  0  0  0  0  0  0  0  0  0  0  0
   34.4320   38.1850   22.3770 O   0  0  0  0  0  0  0  0  0  0  0  0
   34.5750   40.6490   22.8770 C   0  0  0  0  0  0  0  0  0  0  0  0
   35.2970   41.7060   23.5960 O   0  0  0  0  0  0  0  0  0  0  0  0
   36.1520   39.0410   23.7680 O   0  0  0  0  0  0  0  0  0  0  0  0
   36.0090   39.9410   21.4980 C   0  0  0  0  0  0  0  0  0  0  0  0
   34.4060   42.1430   21.0400 O   0  0  0  0  0  0  0  0  0  0  0  0
   34.8650   40.9440   21.3550 C   0  0  0  0  0  0  0  0  0  0  0  0
   35.2340   39.2670   22.6870 C   0  0  0  0  0  0  0  0  0  0  0  0
  2  9  1  0
  3  4  1  0
  6  1  1  0
  6  9  1  0
  8  7  1  0
  8  6  1  0
  8  3  1  0
  9  3  1  0
  9  5  1  0
M  END
$$$$

     RDKit          3D

 14 15  0  0  0  0  0  0  0  0999 V2000
   33.4470   40.6150   21.8290 C   0  0  0  0  0  0  0  0  0  0  0  0
   34.7230   40.0210   21.8340 C   0  0  0  0  0  0  0  0  0  0  0  0
   32.4660   39.8780   22.0680 O   0  0  0  0  0  0  0  0  0  0  0  0
   33.2890   41.9360   21.7310 N   0  0  0  0  0  0  0  0  0  0  0  0
   36.2070   38.0540   21.8200 C   0  0  0  0  0  0  0  0  0  0  0  0
   39.2420   40.8950   21.9800 O   0  0  0  0  0  0  0  0  0  0  0  0
   37.0740   38.8930   20.9150 C   0  0  0  0  0  0  0  0  0  0  0  0
   34.8590   38.6500   21.8960 N   0  0  0  0  0  0  0  0  0  0  0  0
   38.1770   40.4000   22.3670 C   0  0  0  0  0  0  0  0  0  0  0  0
   37.0740   40.3540   21.3210 C   0  0  0  0  0  0  0  0  0  0  0  0
   34.3400   42.7710   21.7340 C   0  0  0  0  0  0  0  0  0  0  0  0
   35.7650   40.8980   21.7150 C   0  0  0  0  0  0  0  0  0  0  0  0
   37.9620   40.0100   23.5280 O   0  0  0  0  0  0  0  0  0  0  0  0
   35.5910   42.2550   21.7820 C   0  0  0  0  0  0  0  0  0  0  0  0
  1  2  1  0
  1  3  2  0
  2  8  1  0
  4 11  2  0
  4  1  1  0
  5  8  1  0
  6  9  2  0
  7 10  1  0
  7  5  1  0
  9 13  1  0
 10 12  1  0
 10  9  1  0
 11 14  1  0
 12 14  1  0
 12  2  2  0
M  END
$$$$

     RDKit          3D

 25 27  0  0  0  0  0  0  0  0999 V2000
   36.0590   36.0290   25.3440 C   0  0  0  0  0  0  0  0  0  0  0  0
   40.2140   43.6350   25.8950 C   0  0  0  0  0  0  0  0  0  0  0  0
   32.6820   36.3080   21.5030 C   0  0  0  0  0  0  0  0  0  0  0  0
   39.9770   41.2700   25.8930 N   0  0  0  0  0  0  0  0  0  0  0  0
   37.9850   39.3450   24.9730 N   0  0  0  0  0  0  0  0  0  0  0  0
   39.6330   44.0540   27.9400 C   0  0  0  0  0  0  0  0  0  0  0  0
   37.2970   36.0700   24.7070 N   0  0  0  0  0  0  0  0  0  0  0  0
   36.9430   38.5590   25.0480 C   0  0  0  0  0  0  0  0  0  0  0  0
   34.0020   36.9850   24.8130 O   0  0  0  0  0  0  0  0  0  0  0  0
   38.1250   40.5710   24.6530 C   0  0  0  0  0  0  0  0  0  0  0  0
   31.3230   39.2180   23.3380 O   0  0  0  0  0  0  0  0  0  0  0  0
   33.9130   38.4920   23.0260 C   0  0  0  0  0  0  0  0  0  0  0  0
   40.6570   43.5000   24.6990 O   0  0  0  0  0  0  0  0  0  0  0  0
   36.9900   37.1280   25.6310 C   0  0  0  0  0  0  0  0  0  0  0  0
   39.6680   42.6820   27.8240 N   0  0  0  0  0  0  0  0  0  0  0  0
   39.4680   41.2450   24.5310 C   0  0  0  0  0  0  0  0  0  0  0  0
   30.1210   38.5320   22.9760 C   0  0  0  0  0  0  0  0  0  0  0  0
   30.5020   37.4710   22.1690 C   0  0  0  0  0  0  0  0  0  0  0  0
   35.5410   38.8430   24.6700 C   0  0  0  0  0  0  0  0  0  0  0  0
   37.2160   41.1530   24.5780 O   0  0  0  0  0  0  0  0  0  0  0  0
   39.9280   42.3910   26.5340 C   0  0  0  0  0  0  0  0  0  0  0  0
   31.8870   37.3240   22.2610 C   0  0  0  0  0  0  0  0  0  0  0  0
   34.8540   37.6820   24.0320 C   0  0  0  0  0  0  0  0  0  0  0  0
   32.4270   38.2710   23.1660 C   0  0  0  0  0  0  0  0  0  0  0  0
   39.9830   44.6130   26.8410 O   0  0  0  0  0  0  0  0  0  0  0  0
  1 14  1  0
  2 21  1  0
  2 25  1  0
  4 21  1  0
  5  8  2  3
  7  1  1  0
  7 14  1  0
 10  5  1  0
 12 23  1  0
 13  2  2  0
 14  8  1  0
 15  6  1  0
 16 10  1  0
 16  4  1  0
 17 11  1  0
 18 22  1  0
 18 17  1  0
 19  8  1  0
 20 10  2  0
 21 15  2  0
 22  3  1  0
 22 24  1  0
 23 19  1  0
 23  9  1  0
 24 12  1  0
 24 11  1  0
 25  6  1  0
M  END
$$$$

     RDKit          3D

 10 10  0  0  0  0  0  0  0  0999 V2000
   33.5350   41.7840   21.8820 C   0  0  0  0  0  0  0  0  0  0  0  0
   34.1360   39.3350   22.1050 C   0  0  0  0  0  0  0  0  0  0  0  0
   33.8070   42.9440   22.1660 O   0  0  0  0  0  0  0  0  0  0  0  0
   34.8500   38.3100   22.6330 C   0  0  0  0  0  0  0  0  0  0  0  0
   36.1950   39.8710   23.7790 C   0  0  0  0  0  0  0  0  0  0  0  0
   35.4370   40.9190   23.2290 C   0  0  0  0  0  0  0  0  0  0  0  0
   35.9020   38.5740   23.4670 C   0  0  0  0  0  0  0  0  0  0  0  0
   34.4040   40.6530   22.4190 C   0  0  0  0  0  0  0  0  0  0  0  0
   32.5340   41.4980   20.8080 C   0  0  0  0  0  0  0  0  0  0  0  0
   36.6620   37.5150   23.9840 N   0  0  0  0  0  0  0  0  0  0  0  0
  1  3  2  0
  1  8  1  0
  2  8  2  0
  2  4  1  0
  4  7  2  0
  6  5  2  0
  7  5  1  0
  7 10  1  0
  8  6  1  0
  9  1  1  0
M  END
$$$$

     RDKit          3D

 34 37  0  0  0  0  0  0  0  0999 V2000
   37.0300   37.8490   25.5100 C   0  0  0  0  0  0  0  0  0  0  0  0
   31.9030   36.6380   21.7480 C   0  0  0  0  0  0  0  0  0  0  0  0
   33.9700   38.8270   24.3020 C   0  0  0  0  0  0  0  0  0  0  0  0
   36.0120   38.3850   18.1050 C   0  0  0  0  0  0  0  0  0  0  0  0
   35.9380   38.9940   20.6590 C   0  0  0  0  0  0  0  0  0  0  0  0
   32.9780   40.2550   22.5260 C   0  0  0  0  0  0  0  0  0  0  0  0
   34.9940   42.1250   17.3490 C   0  0  0  0  0  0  0  0  0  0  0  0
   35.1000   40.7510   19.1320 C   0  0  0  0  0  0  0  0  0  0  0  0
   34.8390   39.8550   16.4390 O   0  0  0  0  0  0  0  0  0  0  0  0
   36.2100   38.7250   24.8460 O   0  0  0  0  0  0  0  0  0  0  0  0
   36.3860   41.6480   17.1420 C   0  0  0  0  0  0  0  0  0  0  0  0
   34.4130   41.9950   18.7830 C   0  0  0  0  0  0  0  0  0  0  0  0
   39.7320   39.0440   24.2440 C   0  0  0  0  0  0  0  0  0  0  0  0
   35.6630   40.0890   17.6880 S   0  0  0  0  0  0  0  0  0  0  0  0
   35.5670   42.5270   21.7150 C   0  0  0  0  0  0  0  0  0  0  0  0
   40.4880   38.4240   22.9340 C   0  0  0  0  0  0  0  0  0  0  0  0
   38.9310   40.1210   23.8320 O   0  0  0  0  0  0  0  0  0  0  0  0
   35.0210   36.6310   25.2380 C   0  0  0  0  0  0  0  0  0  0  0  0
   34.6500   41.5240   21.1930 N   0  0  0  0  0  0  0  0  0  0  0  0
   36.3090   38.1340   19.4660 C   0  0  0  0  0  0  0  0  0  0  0  0
   34.0840   39.1500   22.7430 C   0  0  0  0  0  0  0  0  0  0  0  0
   33.2690   41.4490   21.5800 C   0  0  0  0  0  0  0  0  0  0  0  0
   34.9570   37.7510   24.6120 C   0  0  0  0  0  0  0  0  0  0  0  0
   35.0120   43.5440   17.8740 C   0  0  0  0  0  0  0  0  0  0  0  0
   31.2570   37.8730   21.0330 C   0  0  0  0  0  0  0  0  0  0  0  0
   38.9250   37.7400   24.4110 N   0  0  0  0  0  0  0  0  0  0  0  0
   35.2640   40.3410   20.4000 C   0  0  0  0  0  0  0  0  0  0  0  0
   38.2560   38.4380   25.6310 N   0  0  0  0  0  0  0  0  0  0  0  0
   34.2990   37.8030   22.0290 C   0  0  0  0  0  0  0  0  0  0  0  0
   35.2680   44.3550   16.5720 C   0  0  0  0  0  0  0  0  0  0  0  0
   32.1620   35.4490   20.7870 C   0  0  0  0  0  0  0  0  0  0  0  0
   36.3270   38.8460   21.8450 O   0  0  0  0  0  0  0  0  0  0  0  0
   36.4710   36.5480   25.6570 C   0  0  0  0  0  0  0  0  0  0  0  0
   33.1710   36.9420   22.4440 N   0  0  0  0  0  0  0  0  0  0  0  0
  1 28  1  0
  1 33  1  0
  2 34  1  0
  4 20  1  0
  5 32  2  0
  6 21  1  0
  7 11  1  0
  7 24  1  0
  7 12  1  0
  8 27  2  0
 10  1  1  0
 11 14  1  0
 12  8  1  0
 13 16  1  0
 13 26  1  0
 14  9  1  0
 14  4  1  0
 14  8  1  0
 17 13  1  0
 18 33  1  0
 19 22  1  0
 19 15  1  0
 20  5  1  0
 21 29  1  0
 21  3  1  0
 22  6  1  0
 23  3  1  0
 23 10  1  0
 23 18  1  0
 24 30  1  0
 24 12  1  0
 25  2  1  0
 26 28  1  0
 27  5  1  0
 27 19  1  0
 29 34  1  0
 31  2  1  0
M  END
$$$$

     RDKit          3D

 13 13  0  0  0  0  0  0  0  0999 V2000
   34.0330   38.8250   23.1240 C   0  0  0  0  0  0  0  0  0  0  0  0
   38.7340   40.8460   23.6480 P   0  0  0  0  0  0  0  0  0  0  0  0
   36.2040   39.3000   24.3170 C   0  0  0  0  0  0  0  0  0  0  0  0
   34.7520   39.7240   24.0620 C   0  0  0  0  0  0  0  0  0  0  0  0
   38.4020   39.9210   25.0670 C   0  0  0  0  0  0  0  0  0  0  0  0
   38.5940   42.1810   23.8750 O   0  0  0  0  0  0  0  0  0  0  0  0
   35.0480   38.6700   21.8640 C   0  0  0  0  0  0  0  0  0  0  0  0
   40.0790   40.4920   23.2020 O   0  0  0  0  0  0  0  0  0  0  0  0
   37.5250   40.8210   22.7560 O   0  0  0  0  0  0  0  0  0  0  0  0
   37.0440   40.1350   25.1840 O   0  0  0  0  0  0  0  0  0  0  0  0
   37.5480   38.0850   22.4510 O   0  0  0  0  0  0  0  0  0  0  0  0
   34.8840   37.5410   21.0210 O   0  0  0  0  0  0  0  0  0  0  0  0
   36.2250   38.7160   22.8900 C   0  0  0  0  0  0  0  0  0  0  0  0
  1  4  1  0
  2  6  1  0
  2  5  1  0
  3 10  1  0
  4  3  1  0
  5 10  1  0
  7 12  1  0
  7 13  1  0
  7  1  1  0
  8  2  1  0
  9  2  2  0
 13 11  1  0
 13  3  1  0
M  END
$$$$

     RDKit          3D

 14 13  0  0  0  0  0  0  0  0999 V2000
   33.5190   40.4850   21.1250 C   0  0  0  0  0  0  0  0  0  0  0  0
   33.6020   38.2560   23.0650 C   0  0  0  0  0  0  0  0  0  0  0  0
   31.5620   38.5100   22.7820 O   0  0  0  0  0  0  0  0  0  0  0  0
   35.1400   40.4290   24.5400 O   0  0  0  0  0  0  0  0  0  0  0  0
   35.4200   39.7490   22.5310 O   0  0  0  0  0  0  0  0  0  0  0  0
   33.8860   37.7060   22.1920 C   0  0  0  0  0  0  0  0  0  0  0  0
   32.6430   39.1060   23.5310 C   0  0  0  0  0  0  0  0  0  0  0  0
   35.5190   39.4140   23.9720 C   0  0  0  0  0  0  0  0  0  0  0  0
   34.8350   42.2500   22.3150 C   0  0  0  0  0  0  0  0  0  0  0  0
   34.3270   39.9810   20.0720 O   0  0  0  0  0  0  0  0  0  0  0  0
   34.8040   38.0710   23.8460 C   0  0  0  0  0  0  0  0  0  0  0  0
   35.2480   36.8680   24.1420 O   0  0  0  0  0  0  0  0  0  0  0  0
   34.3850   40.8100   22.3730 C   0  0  0  0  0  0  0  0  0  0  0  0
   33.2790   36.2540   22.1440 O   0  0  0  0  0  0  0  0  0  0  0  0
  1 13  1  0
  2  7  1  0
  2 11  1  0
  3  7  1  0
  5  8  1  0
  6  2  1  0
  8  4  1  0
 10  1  1  0
 11  8  1  0
 11 12  1  0
 13  9  1  0
 13  5  1  0
 14  6  1  0
M  END
$$$$

     RDKit          3D

 11 10  0  0  0  0  0  0  0  0999 V2000
   35.5740   40.9980   22.8150 C   0  0  0  0  0  0  0  0  0  0  0  0
   34.7880   39.7470   20.7240 O   0  0  0  0  0  0  0  0  0  0  0  0
   33.3670   41.6880   21.7310 C   0  0  0  0  0  0  0  0  0  0  0  0
   35.4290   41.5530   23.8410 O   0  0  0  0  0  0  0  0  0  0  0  0
   34.3010   40.0280   22.1400 P   0  0  0  0  0  0  0  0  0  0  0  0
   34.0940   38.8130   23.0430 N   0  0  0  0  0  0  0  0  0  0  0  0
   36.8510   38.6720   22.3850 O   0  0  0  0  0  0  0  0  0  0  0  0
   38.7690   39.8240   21.5590 N   0  0  0  0  0  0  0  0  0  0  0  0
   37.4010   39.6370   21.9840 C   0  0  0  0  0  0  0  0  0  0  0  0
   37.0090   42.2950   21.4830 C   0  0  0  0  0  0  0  0  0  0  0  0
   36.7320   40.9460   22.1260 N   0  0  0  0  0  0  0  0  0  0  0  0
  1  4  2  0
  2  5  2  0
  5  3  1  0
  5  1  1  0
  5  6  1  0
  8  9  1  0
  9 11  1  0
  9  7  2  0
 10 11  1  0
 11  1  1  0
M  END
$$$$
