
     RDKit          3D

 13 13  0  0  0  0  0  0  0  0999 V2000
   38.9230   38.2390   22.3670 C   0  0  0  0  0  0  0  0  0  0  0  0
   41.2120   38.5990   21.8140 O   0  0  0  0  0  0  0  0  0  0  0  0
   36.9880   37.3980   24.2460 C   0  0  0  0  0  0  0  0  0  0  0  0
   37.2750   36.5860   23.3880 O   0  0  0  0  0  0  0  0  0  0  0  0
   40.3770   37.9770   22.7510 C   0  0  0  0  0  0  0  0  0  0  0  0
   40.2290   39.0620   23.7670 O   0  0  0  0  0  0  0  0  0  0  0  0
   38.8880   36.8680   26.6900 C   0  0  0  0  0  0  0  0  0  0  0  0
   38.6720   39.4490   23.6860 P   0  0  0  0  0  0  0  0  0  0  0  0
   37.8800   38.2140   24.7480 C   0  0  0  0  0  0  0  0  0  0  0  0
   38.9990   38.0100   25.8050 N   0  0  0  0  0  0  0  0  0  0  0  0
   38.6410   40.4980   24.5300 O   0  0  0  0  0  0  0  0  0  0  0  0
   35.8310   37.1640   24.6930 O   0  0  0  0  0  0  0  0  0  0  0  0
   38.8960   38.4060   20.9230 O   0  0  0  0  0  0  0  0  0  0  0  0
  1 13  1  0
  1  5  1  0
  1  8  1  0
  3 12  1  0
  4  3  2  0
  5  2  1  0
  5  6  1  0
  8  6  1  0
  8 11  2  0
  8  9  1  0
  9  3  1  0
  9 10  1  0
 10  7  1  0
M  END
$$$$

     RDKit          3D

 26 26  0  0  0  0  0  0  0  0999 V2000
   34.6010   33.5020   33.0920 C   0  0  0  0  0  0  0  0  0  0  0  0
   40.7660   41.7040   23.7370 C   0  0  0  0  0  0  0  0  0  0  0  0
   33.3820   34.2590   36.7250 C   0  0  0  0  0  0  0  0  0  0  0  0
   36.6980   37.0980   26.7060 C   0  0  0  0  0  0  0  0  0  0  0  0
   39.3950   39.9160   24.4480 C   0  0  0  0  0  0  0  0  0  0  0  0
   41.8500   38.5800   21.4510 C   0  0  0  0  0  0  0  0  0  0  0  0
   37.5540   38.1250   25.8980 C   0  0  0  0  0  0  0  0  0  0  0  0
   40.6510   40.5210   24.0400 C   0  0  0  0  0  0  0  0  0  0  0  0
   38.4860   37.5870   24.7650 C   0  0  0  0  0  0  0  0  0  0  0  0
   35.4200   34.9570   31.3400 C   0  0  0  0  0  0  0  0  0  0  0  0
   40.7220   36.8540   22.7270 O   0  0  0  0  0  0  0  0  0  0  0  0
   37.0010   35.4560   27.4420 S   0  0  0  0  0  0  0  0  0  0  0  0
   40.7770   38.3910   22.8900 S   0  0  0  0  0  0  0  0  0  0  0  0
   39.6280   36.8800   25.3650 N   0  0  0  0  0  0  0  0  0  0  0  0
   34.6130   33.8160   35.6130 C   0  0  0  0  0  0  0  0  0  0  0  0
   35.7630   35.4970   28.6980 C   0  0  0  0  0  0  0  0  0  0  0  0
   33.3840   33.6220   37.7360 O   0  0  0  0  0  0  0  0  0  0  0  0
   41.6660   39.6400   23.7240 N   0  0  0  0  0  0  0  0  0  0  0  0
   34.5900   34.6130   32.5100 C   0  0  0  0  0  0  0  0  0  0  0  0
   35.2100   34.5370   29.8410 C   0  0  0  0  0  0  0  0  0  0  0  0
   32.9040   35.1820   36.7290 O   0  0  0  0  0  0  0  0  0  0  0  0
   34.0460   33.2050   34.3640 C   0  0  0  0  0  0  0  0  0  0  0  0
   39.8100   42.5690   22.9450 C   0  0  0  0  0  0  0  0  0  0  0  0
   39.0610   38.6450   23.7230 C   0  0  0  0  0  0  0  0  0  0  0  0
   42.0030   42.2250   24.1800 C   0  0  0  0  0  0  0  0  0  0  0  0
   38.5970   40.5610   25.1650 O   0  0  0  0  0  0  0  0  0  0  0  0
  1 22  1  0
  2 25  1  0
  3 21  2  0
  3 17  1  0
  4 12  1  0
  5 26  2  0
  7  4  1  0
  8  2  1  0
  8  5  1  0
  9 14  1  0
  9  7  1  0
 10 19  1  0
 11 13  1  0
 12 16  1  0
 13  6  1  0
 13 24  1  0
 13 18  1  0
 15  3  1  0
 16 20  1  0
 18  8  1  0
 19  1  2  3
 20 10  1  0
 22 15  1  0
 23  2  1  0
 24  5  1  0
 24  9  1  0
M  END
$$$$

     RDKit          3D

  7  6  0  0  0  0  0  0  0  0999 V2000
   38.8510   36.6050   26.8210 C   0  0  0  0  0  0  0  0  0  0  0  0
   38.8210   38.4860   25.0330 P   0  0  0  0  0  0  0  0  0  0  0  0
   38.5210   39.9850   25.1990 O   0  0  0  0  0  0  0  0  0  0  0  0
   38.0850   35.3930   26.4430 O   0  0  0  0  0  0  0  0  0  0  0  0
   38.0980   37.8340   23.7220 O   0  0  0  0  0  0  0  0  0  0  0  0
   40.3390   38.1650   25.0010 O   0  0  0  0  0  0  0  0  0  0  0  0
   37.8850   37.6060   26.2750 C   0  0  0  0  0  0  0  0  0  0  0  0
  2  3  1  0
  2  7  1  0
  4  1  1  0
  5  2  2  0
  6  2  1  0
  7  1  1  0
M  END
$$$$

     RDKit          3D

  8  7  0  0  0  0  0  0  0  0999 V2000
   41.2460   38.4720   22.6180 C   0  0  0  0  0  0  0  0  0  0  0  0
   40.2800   37.7910   23.2960 C   0  0  0  0  0  0  0  0  0  0  0  0
   39.8680   38.4310   24.6640 C   0  0  0  0  0  0  0  0  0  0  0  0
   37.4030   39.0620   23.9340 C   0  0  0  0  0  0  0  0  0  0  0  0
   37.7760   36.9790   24.5660 O   0  0  0  0  0  0  0  0  0  0  0  0
   38.3900   38.4300   24.7800 C   0  0  0  0  0  0  0  0  0  0  0  0
   40.5130   39.5870   24.9900 O   0  0  0  0  0  0  0  0  0  0  0  0
   38.0880   39.6960   25.7290 O   0  0  0  0  0  0  0  0  0  0  0  0
  1  2  1  0
  2  3  1  0
  3  6  1  0
  3  7  1  0
  4  6  1  0
  5  6  1  0
  6  8  1  0
M  END
$$$$

     RDKit          3D

 11 10  0  0  0  0  0  0  0  0999 V2000
   40.0330   39.3930   22.4770 C   0  0  0  0  0  0  0  0  0  0  0  0
   39.2810   37.4920   23.8470 C   0  0  0  0  0  0  0  0  0  0  0  0
   38.2360   37.5800   22.8600 O   0  0  0  0  0  0  0  0  0  0  0  0
   38.2240   38.9840   25.6710 C   0  0  0  0  0  0  0  0  0  0  0  0
   40.6470   40.7640   22.2600 C   0  0  0  0  0  0  0  0  0  0  0  0
   42.0780   38.0210   24.1690 O   0  0  0  0  0  0  0  0  0  0  0  0
   41.2680   38.9120   24.5610 C   0  0  0  0  0  0  0  0  0  0  0  0
   41.6280   39.7350   25.4380 O   0  0  0  0  0  0  0  0  0  0  0  0
   38.9280   39.7920   24.6290 O   0  0  0  0  0  0  0  0  0  0  0  0
   39.8510   38.9040   23.9390 C   0  0  0  0  0  0  0  0  0  0  0  0
   36.9470   38.4950   25.1550 O   0  0  0  0  0  0  0  0  0  0  0  0
  2 10  1  0
  3  2  1  0
  5  1  1  0
  6  7  2  0
  7  8  1  0
  9  4  1  0
 10  1  1  0
 10  7  1  0
 10  9  1  0
 11  4  1  0
M  END
$$$$

     RDKit          3D

 21 24  0  0  0  0  0  0  0  0999 V2000
   38.8270   39.4840   24.6760 C   0  0  0  0  0  0  0  0  0  0  0  0
   34.5300   35.2610   20.7840 C   0  0  0  0  0  0  0  0  0  0  0  0
   41.0530   38.3210   24.8920 C   0  0  0  0  0  0  0  0  0  0  0  0
   38.2490   40.5530   25.4310 O   0  0  0  0  0  0  0  0  0  0  0  0
   39.2840   36.8300   27.0440 N   0  0  0  0  0  0  0  0  0  0  0  0
   35.3120   37.2300   22.6020 C   0  0  0  0  0  0  0  0  0  0  0  0
   37.3440   35.6120   26.2250 C   0  0  0  0  0  0  0  0  0  0  0  0
   37.5000   38.1480   22.8870 C   0  0  0  0  0  0  0  0  0  0  0  0
   34.2290   36.3630   22.9230 C   0  0  0  0  0  0  0  0  0  0  0  0
   38.9820   37.6430   26.0650 C   0  0  0  0  0  0  0  0  0  0  0  0
   36.7070   34.4590   26.2250 N   0  0  0  0  0  0  0  0  0  0  0  0
   37.7800   38.5240   24.2550 C   0  0  0  0  0  0  0  0  0  0  0  0
   38.4650   35.6690   27.1920 C   0  0  0  0  0  0  0  0  0  0  0  0
   37.9410   37.4740   25.2290 N   0  0  0  0  0  0  0  0  0  0  0  0
   39.8210   38.7880   25.6450 C   0  0  0  0  0  0  0  0  0  0  0  0
   35.5680   36.1260   20.4840 C   0  0  0  0  0  0  0  0  0  0  0  0
   33.8850   35.3620   22.0200 C   0  0  0  0  0  0  0  0  0  0  0  0
   36.9930   36.5500   25.3720 N   0  0  0  0  0  0  0  0  0  0  0  0
   36.0040   37.0290   21.4550 C   0  0  0  0  0  0  0  0  0  0  0  0
   35.7170   38.3980   23.5850 C   0  0  0  0  0  0  0  0  0  0  0  0
   36.5210   38.9430   24.6410 O   0  0  0  0  0  0  0  0  0  0  0  0
  1  4  1  0
  1 15  1  0
  2 17  1  0
  5 13  2  0
  6  9  1  0
  7 13  1  0
  8 20  1  0
 10  5  1  0
 11  7  1  0
 12  8  1  0
 12 21  1  0
 12  1  1  0
 12 14  1  0
 14 18  1  0
 14 10  1  0
 15  3  1  0
 15 10  1  0
 16  2  2  0
 16 19  1  0
 17  9  2  0
 18  7  2  0
 19  6  2  0
 20  6  1  0
 20 21  1  0
M  END
$$$$

     RDKit          3D

 14 16  0  0  0  0  0  0  0  0999 V2000
   36.8260   38.2540   24.8390 C   0  0  0  0  0  0  0  0  0  0  0  0
   40.2340   38.9500   25.6550 C   0  0  0  0  0  0  0  0  0  0  0  0
   36.0050   38.5130   21.2310 O   0  0  0  0  0  0  0  0  0  0  0  0
   39.9070   40.3550   25.2110 C   0  0  0  0  0  0  0  0  0  0  0  0
   40.0790   37.8780   24.7190 O   0  0  0  0  0  0  0  0  0  0  0  0
   35.2040   35.9820   23.3770 O   0  0  0  0  0  0  0  0  0  0  0  0
   38.8490   39.8660   24.0740 O   0  0  0  0  0  0  0  0  0  0  0  0
   38.9610   38.1150   25.5750 C   0  0  0  0  0  0  0  0  0  0  0  0
   37.8580   38.3530   22.4140 O   0  0  0  0  0  0  0  0  0  0  0  0
   39.3860   41.1260   26.1240 O   0  0  0  0  0  0  0  0  0  0  0  0
   35.6630   37.2760   22.4630 C   0  0  0  0  0  0  0  0  0  0  0  0
   36.7590   37.9430   23.2230 C   0  0  0  0  0  0  0  0  0  0  0  0
   37.9450   39.1670   25.1070 C   0  0  0  0  0  0  0  0  0  0  0  0
   37.0960   37.1060   24.1090 O   0  0  0  0  0  0  0  0  0  0  0  0
  1 14  1  0
  1 13  1  0
  2  5  1  0
  3 11  2  0
  4  2  1  0
  4 10  1  0
  7  4  1  0
  8  5  1  0
  8  2  1  0
 11 12  1  0
 11  6  1  0
 12  9  1  0
 12 14  1  0
 12  1  1  0
 13  7  1  0
 13  8  1  0
M  END
$$$$

     RDKit          3D

 12 12  0  0  0  0  0  0  0  0999 V2000
   39.1810   40.2020   26.2240 O   0  0  0  0  0  0  0  0  0  0  0  0
   38.8810   38.2490   22.9130 C   0  0  0  0  0  0  0  0  0  0  0  0
   38.8670   36.6330   25.5870 O   0  0  0  0  0  0  0  0  0  0  0  0
   40.3520   38.2150   23.3410 C   0  0  0  0  0  0  0  0  0  0  0  0
   39.5240   38.6890   21.5310 O   0  0  0  0  0  0  0  0  0  0  0  0
   36.6300   37.6470   23.9240 C   0  0  0  0  0  0  0  0  0  0  0  0
   37.9820   38.3760   24.2800 C   0  0  0  0  0  0  0  0  0  0  0  0
   40.9300   39.4110   24.1440 C   0  0  0  0  0  0  0  0  0  0  0  0
   39.7310   38.8500   26.2000 C   0  0  0  0  0  0  0  0  0  0  0  0
   38.9200   37.8540   25.3610 C   0  0  0  0  0  0  0  0  0  0  0  0
   41.1430   39.0210   25.6030 C   0  0  0  0  0  0  0  0  0  0  0  0
   36.6290   36.2260   24.3110 O   0  0  0  0  0  0  0  0  0  0  0  0
  2  5  1  0
  2  4  1  0
  2  7  1  0
  4  8  1  0
  6 12  1  0
  7  6  1  0
  7 10  1  0
  8 11  1  0
  9  1  1  0
 10  3  2  0
 10  9  1  0
 11  9  1  0
M  END
$$$$

     RDKit          3D

 11 11  0  0  0  0  0  0  0  0999 V2000
   38.3940   38.0200   25.1670 C   0  0  0  0  0  0  0  0  0  0  0  0
   37.7530   40.2990   25.8620 O   0  0  0  0  0  0  0  0  0  0  0  0
   38.3370   39.5140   23.1070 C   0  0  0  0  0  0  0  0  0  0  0  0
   40.5280   37.8490   26.1540 O   0  0  0  0  0  0  0  0  0  0  0  0
   38.1810   37.1130   22.9230 O   0  0  0  0  0  0  0  0  0  0  0  0
   38.5440   39.5560   21.5950 C   0  0  0  0  0  0  0  0  0  0  0  0
   38.3480   38.0780   23.6370 C   0  0  0  0  0  0  0  0  0  0  0  0
   39.4910   37.0540   25.6310 C   0  0  0  0  0  0  0  0  0  0  0  0
   39.2840   40.2260   24.1810 C   0  0  0  0  0  0  0  0  0  0  0  0
   39.2560   41.6010   23.9780 O   0  0  0  0  0  0  0  0  0  0  0  0
   38.8040   39.4860   25.4650 C   0  0  0  0  0  0  0  0  0  0  0  0
  1 11  1  0
  1  8  1  0
  3  6  1  0
  3  7  1  0
  3  9  1  0
  5  7  2  0
  7  1  1  0
  8  4  1  0
  9 10  1  0
  9 11  1  0
 11  2  1  0
M  END
$$$$

     RDKit          3D

  7  6  0  0  0  0  0  0  0  0999 V2000
   39.2680   39.0540   24.9290 C   0  0  0  0  0  0  0  0  0  0  0  0
   39.9530   40.1250   25.7840 C   0  0  0  0  0  0  0  0  0  0  0  0
   38.9790   37.1230   26.6350 C   0  0  0  0  0  0  0  0  0  0  0  0
   37.7990   36.3730   26.2080 N   0  0  0  0  0  0  0  0  0  0  0  0
   37.7810   39.1670   24.9830 O   0  0  0  0  0  0  0  0  0  0  0  0
   39.7670   39.2680   23.5070 C   0  0  0  0  0  0  0  0  0  0  0  0
   39.7220   37.6650   25.4020 C   0  0  0  0  0  0  0  0  0  0  0  0
  1  5  1  0
  1  7  1  0
  1  2  1  0
  4  3  1  0
  6  1  1  0
  7  3  1  0
M  END
$$$$

     RDKit          3D

 25 25  0  0  0  0  0  0  0  0999 V2000
   37.2870   30.9090   28.1700 O   0  0  0  0  0  0  0  0  0  0  0  0
   38.0060   38.0260   25.1790 C   0  0  0  0  0  0  0  0  0  0  0  0
   37.2680   33.6250   28.4790 C   0  0  0  0  0  0  0  0  0  0  0  0
   37.2410   38.4700   23.9610 C   0  0  0  0  0  0  0  0  0  0  0  0
   37.8210   34.6720   27.0880 S   0  0  0  0  0  0  0  0  0  0  0  0
   39.3690   40.2770   25.1750 C   0  0  0  0  0  0  0  0  0  0  0  0
   39.6670   29.2610   30.6750 C   0  0  0  0  0  0  0  0  0  0  0  0
   36.9100   37.0810   21.8890 C   0  0  0  0  0  0  0  0  0  0  0  0
   38.1890   36.5530   25.2710 N   0  0  0  0  0  0  0  0  0  0  0  0
   38.3920   33.0950   29.2880 C   0  0  0  0  0  0  0  0  0  0  0  0
   40.7560   38.5780   25.1630 O   0  0  0  0  0  0  0  0  0  0  0  0
   39.1670   37.6410   22.2280 C   0  0  0  0  0  0  0  0  0  0  0  0
   38.2790   31.0070   31.7990 C   0  0  0  0  0  0  0  0  0  0  0  0
   38.3030   31.7400   30.2830 C   0  0  0  0  0  0  0  0  0  0  0  0
   38.9500   35.9920   26.2820 C   0  0  0  0  0  0  0  0  0  0  0  0
   39.4620   41.1690   26.1880 O   0  0  0  0  0  0  0  0  0  0  0  0
   39.4400   38.6690   25.5500 C   0  0  0  0  0  0  0  0  0  0  0  0
   38.0130   30.6570   29.2930 C   0  0  0  0  0  0  0  0  0  0  0  0
   38.5840   29.3250   29.4600 C   0  0  0  0  0  0  0  0  0  0  0  0
   38.2090   28.1040   28.1140 Br  0  0  0  0  0  0  0  0  0  0  0  0
   40.0420   29.3000   32.8730 C   0  0  0  0  0  0  0  0  0  0  0  0
   40.3730   28.3500   30.7510 O   0  0  0  0  0  0  0  0  0  0  0  0
   39.3530   29.8890   31.7570 C   0  0  0  0  0  0  0  0  0  0  0  0
   37.6820   38.0410   22.7080 N   0  0  0  0  0  0  0  0  0  0  0  0
   39.3500   40.5750   23.9460 O   0  0  0  0  0  0  0  0  0  0  0  0
  1 18  1  0
  2  4  1  0
  2  9  1  0
  2 17  1  0
  3 10  1  0
  5  3  1  0
  6 17  1  0
  6 16  1  0
  7 22  2  0
  7 23  1  0
  8 24  1  0
  9 15  1  0
 12 24  1  0
 14 10  1  0
 14 13  1  0
 15  5  1  0
 17 11  1  0
 18 19  2  0
 18 14  1  0
 19  7  1  0
 20 19  1  0
 23 13  1  0
 23 21  1  0
 24  4  1  0
 25  6  2  0
M  END
$$$$

     RDKit          3D

 14 15  0  0  0  0  0  0  0  0999 V2000
   39.4340   40.1100   25.6760 C   0  0  0  0  0  0  0  0  0  0  0  0
   39.1300   37.8650   26.2730 O   0  0  0  0  0  0  0  0  0  0  0  0
   38.2480   36.8420   26.9280 C   0  0  0  0  0  0  0  0  0  0  0  0
   36.8590   37.3750   27.2120 C   0  0  0  0  0  0  0  0  0  0  0  0
   37.2000   38.8960   25.6770 O   0  0  0  0  0  0  0  0  0  0  0  0
   35.8900   37.0350   28.1790 C   0  0  0  0  0  0  0  0  0  0  0  0
   36.9210   37.4660   23.8630 C   0  0  0  0  0  0  0  0  0  0  0  0
   38.7810   41.0540   25.5120 O   0  0  0  0  0  0  0  0  0  0  0  0
   38.6460   38.9880   25.9060 C   0  0  0  0  0  0  0  0  0  0  0  0
   34.8770   38.1680   28.9260 C   0  0  0  0  0  0  0  0  0  0  0  0
   37.8170   36.2950   25.7450 O   0  0  0  0  0  0  0  0  0  0  0  0
   36.8700   37.4350   25.4290 C   0  0  0  0  0  0  0  0  0  0  0  0
   38.4410   37.6210   22.8490 S   0  0  0  0  0  0  0  0  0  0  0  0
   40.7400   39.8210   25.3630 O   0  0  0  0  0  0  0  0  0  0  0  0
  2  3  1  0
  3 11  1  0
  3  4  1  0
  4  6  1  0
  5  9  1  0
  6 10  1  0
  8  1  1  0
  9  1  1  0
  9  2  1  0
 12  7  1  0
 12  5  1  0
 12 11  1  0
 12  4  1  0
 13  7  1  0
 14  1  2  0
M  END
$$$$

     RDKit          3D

 19 20  0  0  0  0  0  0  0  0999 V2000
   38.7180   38.5940   22.9730 N   0  0  0  0  0  0  0  0  0  0  0  0
   37.6640   35.8090   26.1860 S   0  0  0  0  0  0  0  0  0  0  0  0
   39.4740   37.5820   26.4380 N   0  0  0  0  0  0  0  0  0  0  0  0
   43.1290   41.7050   25.9400 O   0  0  0  0  0  0  0  0  0  0  0  0
   43.2780   43.2050   26.8510 P   0  0  0  0  0  0  0  0  0  0  0  0
   38.9730   36.5380   27.0360 C   0  0  0  0  0  0  0  0  0  0  0  0
   42.1930   41.8390   24.8580 C   0  0  0  0  0  0  0  0  0  0  0  0
   40.8340   41.7310   25.5740 C   0  0  0  0  0  0  0  0  0  0  0  0
   37.7110   37.6940   22.7940 C   0  0  0  0  0  0  0  0  0  0  0  0
   37.9160   36.8800   24.9150 C   0  0  0  0  0  0  0  0  0  0  0  0
   40.2860   39.7620   24.3320 O   0  0  0  0  0  0  0  0  0  0  0  0
   38.9310   37.7950   25.1730 C   0  0  0  0  0  0  0  0  0  0  0  0
   39.3050   38.7250   24.1680 C   0  0  0  0  0  0  0  0  0  0  0  0
   37.2680   36.8380   23.7730 N   0  0  0  0  0  0  0  0  0  0  0  0
   40.7450   40.2180   25.5180 C   0  0  0  0  0  0  0  0  0  0  0  0
   42.9230   44.3280   25.7780 O   0  0  0  0  0  0  0  0  0  0  0  0
   42.2680   43.2410   28.0440 O   0  0  0  0  0  0  0  0  0  0  0  0
   41.1310   39.5890   26.4890 O   0  0  0  0  0  0  0  0  0  0  0  0
   44.8120   43.3170   27.2450 O   0  0  0  0  0  0  0  0  0  0  0  0
  1 13  2  0
  2  6  1  0
  3  6  2  0
  4  5  1  0
  5 19  1  0
  5 17  1  0
  7  8  1  0
  7  4  1  0
  9  1  1  0
  9 14  2  0
 10 12  2  0
 10  2  1  0
 11 15  1  0
 12  3  1  0
 13 11  1  0
 13 12  1  0
 14 10  1  0
 15  8  1  0
 15 18  2  0
 16  5  2  0
M  END
$$$$

     RDKit          3D

  8  8  0  0  0  0  0  0  0  0999 V2000
   36.4930   38.2890   25.1200 O   0  0  0  0  0  0  0  0  0  0  0  0
   39.0380   40.9610   24.7480 O   0  0  0  0  0  0  0  0  0  0  0  0
   37.9880   37.8790   24.1270 C   0  0  0  0  0  0  0  0  0  0  0  0
   38.4910   37.1610   23.3680 O   0  0  0  0  0  0  0  0  0  0  0  0
   40.9400   38.7910   25.5710 C   0  0  0  0  0  0  0  0  0  0  0  0
   39.7500   38.3090   25.3670 N   0  0  0  0  0  0  0  0  0  0  0  0
   37.8190   38.7510   25.2120 C   0  0  0  0  0  0  0  0  0  0  0  0
   39.2690   39.5900   24.9660 C   0  0  0  0  0  0  0  0  0  0  0  0
  1  7  1  0
  2  8  2  0
  3  1  1  0
  3  7  1  0
  4  3  2  0
  6  5  1  0
  7  8  1  0
  8  6  1  0
M  END
$$$$

     RDKit          3D

  8  8  0  0  0  0  0  0  0  0999 V2000
   38.8550   39.4300   22.8560 C   0  0  0  0  0  0  0  0  0  0  0  0
   38.4730   37.3690   26.0280 O   0  0  0  0  0  0  0  0  0  0  0  0
   37.9430   38.0330   23.7720 C   0  0  0  0  0  0  0  0  0  0  0  0
   38.3390   39.4580   25.1730 C   0  0  0  0  0  0  0  0  0  0  0  0
   38.8140   40.1500   23.7970 C   0  0  0  0  0  0  0  0  0  0  0  0
   38.2330   37.0670   23.1280 O   0  0  0  0  0  0  0  0  0  0  0  0
   38.5200   38.2730   25.0690 C   0  0  0  0  0  0  0  0  0  0  0  0
   39.2440   40.3200   26.3020 O   0  0  0  0  0  0  0  0  0  0  0  0
  1  3  1  0
  1  5  1  0
  3  6  1  0
  3  7  1  0
  4  8  1  0
  5  4  1  0
  7  4  1  0
  7  2  1  0
M  END
$$$$

     RDKit          3D

 10  9  0  0  0  0  0  0  0  0999 V2000
   37.4810   38.7510   21.5120 O   0  0  0  0  0  0  0  0  0  0  0  0
   40.4680   40.4870   24.0950 P   0  0  0  0  0  0  0  0  0  0  0  0
   40.1730   40.8950   22.6450 O   0  0  0  0  0  0  0  0  0  0  0  0
   35.3730   38.3750   22.2740 O   0  0  0  0  0  0  0  0  0  0  0  0
   37.2940   38.6410   23.8590 C   0  0  0  0  0  0  0  0  0  0  0  0
   42.0830   40.2910   24.2260 O   0  0  0  0  0  0  0  0  0  0  0  0
   39.7880   38.9520   24.4770 C   0  0  0  0  0  0  0  0  0  0  0  0
   39.8780   41.3560   25.1430 O   0  0  0  0  0  0  0  0  0  0  0  0
   36.6480   38.5730   22.4460 C   0  0  0  0  0  0  0  0  0  0  0  0
   38.3780   39.4110   23.9430 C   0  0  0  0  0  0  0  0  0  0  0  0
  1  9  2  0
  2  6  1  0
  2  7  1  0
  2  8  1  0
  3  2  2  0
  4  9  1  0
  5 10  1  0
  9  5  1  0
 10  7  1  0
M  END
$$$$

     RDKit          3D

 10 11  0  0  0  0  0  0  0  0999 V2000
   38.7010   37.8710   23.2790 C   0  0  0  0  0  0  0  0  0  0  0  0
   39.6860   38.0230   26.2810 N   0  0  0  0  0  0  0  0  0  0  0  0
   38.4830   38.2730   25.5280 C   0  0  0  0  0  0  0  0  0  0  0  0
   37.9590   37.0080   25.1410 O   0  0  0  0  0  0  0  0  0  0  0  0
   38.7460   39.0970   24.2250 C   0  0  0  0  0  0  0  0  0  0  0  0
   38.7380   38.1790   21.7530 C   0  0  0  0  0  0  0  0  0  0  0  0
   37.6000   37.2630   23.8560 N   0  0  0  0  0  0  0  0  0  0  0  0
   37.8450   39.6260   25.3760 N   0  0  0  0  0  0  0  0  0  0  0  0
   37.5550   36.7260   19.9450 N   0  0  0  0  0  0  0  0  0  0  0  0
   37.8880   36.9640   21.2010 C   0  0  0  0  0  0  0  0  0  0  0  0
  1  6  1  0
  1  7  1  0
  1  5  1  0
  3  2  1  0
  4  3  1  0
  5  8  1  0
  5  3  1  0
  7  4  1  0
  8  3  1  0
  9 10  2  0
 10  6  1  0
M  END
$$$$

     RDKit          3D

  5  4  0  0  0  0  0  0  0  0999 V2000
   37.4260   36.5170   25.9450 C   0  0  0  0  0  0  0  0  0  0  0  0
   39.7400   37.2470   25.8260 N   0  0  0  0  0  0  0  0  0  0  0  0
   37.9560   38.6610   24.8640 C   0  0  0  0  0  0  0  0  0  0  0  0
   37.9150   39.7770   24.7690 O   0  0  0  0  0  0  0  0  0  0  0  0
   38.3640   37.7250   25.9330 C   0  0  0  0  0  0  0  0  0  0  0  0
  2  5  1  0
  3  5  1  0
  4  3  2  0
  5  1  1  0
M  END
$$$$

     RDKit          3D

  7  6  0  0  0  0  0  0  0  0999 V2000
   37.4100   39.1420   24.5760 C   0  0  0  0  0  0  0  0  0  0  0  0
   39.0880   37.2410   26.2590 C   0  0  0  0  0  0  0  0  0  0  0  0
   38.0050   37.5850   23.6860 S   0  0  0  0  0  0  0  0  0  0  0  0
   36.4210   36.8920   22.5150 Br  0  0  0  0  0  0  0  0  0  0  0  0
   38.4070   37.0080   25.1400 N   0  0  0  0  0  0  0  0  0  0  0  0
   39.0070   38.1170   22.6120 O   0  0  0  0  0  0  0  0  0  0  0  0
   38.2530   39.2960   25.7170 O   0  0  0  0  0  0  0  0  0  0  0  0
  1  7  1  0
  3  4  1  0
  3  1  1  0
  3  5  1  0
  5  2  2  0
  6  3  1  0
M  END
$$$$

     RDKit          3D

 17 18  0  0  0  0  0  0  0  0999 V2000
   36.0420   31.1440   32.5810 C   0  0  0  0  0  0  0  0  0  0  0  0
   37.5060   29.9650   31.1150 C   0  0  0  0  0  0  0  0  0  0  0  0
   35.3220   30.7590   30.3570 C   0  0  0  0  0  0  0  0  0  0  0  0
   33.9200   35.4830   34.0430 C   0  0  0  0  0  0  0  0  0  0  0  0
   34.5060   35.1760   31.6370 C   0  0  0  0  0  0  0  0  0  0  0  0
   34.4420   33.1840   32.8440 C   0  0  0  0  0  0  0  0  0  0  0  0
   34.3410   34.5070   32.8970 C   0  0  0  0  0  0  0  0  0  0  0  0
   34.0710   32.0710   33.5590 O   0  0  0  0  0  0  0  0  0  0  0  0
   34.0020   34.9660   35.4470 C   0  0  0  0  0  0  0  0  0  0  0  0
   34.6720   32.5820   31.8290 O   0  0  0  0  0  0  0  0  0  0  0  0
   31.1150   36.8960   32.0370 F   0  0  0  0  0  0  0  0  0  0  0  0
   36.4700   29.9680   30.1300 C   0  0  0  0  0  0  0  0  0  0  0  0
   32.0910   35.8010   32.3470 C   0  0  0  0  0  0  0  0  0  0  0  0
   35.2080   31.3770   31.6060 C   0  0  0  0  0  0  0  0  0  0  0  0
   37.2880   30.4880   32.3640 C   0  0  0  0  0  0  0  0  0  0  0  0
   32.4100   35.7370   33.8620 C   0  0  0  0  0  0  0  0  0  0  0  0
   33.2470   36.2140   31.5290 C   0  0  0  0  0  0  0  0  0  0  0  0
  2 15  2  0
  3 14  1  0
  4  9  1  0
  5  7  1  0
  6  8  2  0
  7  6  1  0
  7  4  1  0
 10  6  1  0
 12  3  2  0
 12  2  1  0
 13 11  1  0
 13 16  1  0
 14 10  1  0
 14  1  2  0
 15  1  1  0
 16  4  1  0
 17  5  1  0
 17 13  1  0
M  END
$$$$
