
     RDKit          3D

 18 17  0  0  0  0  0  0  0  0999 V2000
   44.4050   41.8290   32.4340 O   0  0  0  0  0  0  0  0  0  0  0  0
   42.1360   40.1050   31.1950 C   0  0  0  0  0  0  0  0  0  0  0  0
   40.8300   40.7200   31.3880 C   0  0  0  0  0  0  0  0  0  0  0  0
   38.8680   43.0320   27.5190 C   0  0  0  0  0  0  0  0  0  0  0  0
   37.6260   43.4180   30.2690 C   0  0  0  0  0  0  0  0  0  0  0  0
   38.3890   39.9940   31.0020 C   0  0  0  0  0  0  0  0  0  0  0  0
   39.2970   44.9810   30.8240 C   0  0  0  0  0  0  0  0  0  0  0  0
   39.0500   43.8650   29.8860 C   0  0  0  0  0  0  0  0  0  0  0  0
   39.8260   40.4150   30.5370 C   0  0  0  0  0  0  0  0  0  0  0  0
   44.2980   40.3090   30.2030 N   0  0  0  0  0  0  0  0  0  0  0  0
   40.5240   41.3100   32.4130 O   0  0  0  0  0  0  0  0  0  0  0  0
   39.0860   44.2750   28.4080 C   0  0  0  0  0  0  0  0  0  0  0  0
   44.4800   40.6290   32.1650 C   0  0  0  0  0  0  0  0  0  0  0  0
   45.5020   39.8220   32.5230 N   0  0  0  0  0  0  0  0  0  0  0  0
   40.1250   42.7750   30.1020 C   0  0  0  0  0  0  0  0  0  0  0  0
   43.4940   40.2420   31.0950 C   0  0  0  0  0  0  0  0  0  0  0  0
   39.7820   41.4620   29.4270 C   0  0  0  0  0  0  0  0  0  0  0  0
   39.2620   46.0490   31.2880 C   0  0  0  0  0  0  0  0  0  0  0  0
  2  3  1  0
  3 11  2  0
  4 12  1  0
  7 18  3  0
  8 15  1  0
  8  5  1  0
  8  7  1  0
  9  6  1  0
  9  3  1  0
 10 16  2  0
 12  8  1  0
 13  1  2  0
 13 14  1  0
 16  2  1  0
 16 13  1  0
 17 15  1  0
 17  9  1  0
M  END
$$$$

     RDKit          3D

 10 10  0  0  0  0  0  0  0  0999 V2000
   42.6060   42.2300   30.3610 C   0  0  0  0  0  0  0  0  0  0  0  0
   42.1210   42.9200   31.6490 C   0  0  0  0  0  0  0  0  0  0  0  0
   40.7570   43.7160   31.5080 C   0  0  0  0  0  0  0  0  0  0  0  0
   43.1160   40.8780   30.9930 C   0  0  0  0  0  0  0  0  0  0  0  0
   43.7200   39.9990   30.0720 O   0  0  0  0  0  0  0  0  0  0  0  0
   41.6200   42.0200   29.4200 O   0  0  0  0  0  0  0  0  0  0  0  0
   39.8420   44.1680   30.4500 C   0  0  0  0  0  0  0  0  0  0  0  0
   43.2050   43.5300   30.8920 C   0  0  0  0  0  0  0  0  0  0  0  0
   40.3850   43.9280   32.8990 O   0  0  0  0  0  0  0  0  0  0  0  0
   44.6010   43.2010   30.6060 O   0  0  0  0  0  0  0  0  0  0  0  0
  1  6  1  0
  1  8  1  0
  1  4  1  0
  1  2  1  0
  2  3  1  0
  3  7  1  0
  3  9  1  0
  5  4  1  0
  8 10  1  0
  8  2  1  0
M  END
$$$$

     RDKit          3D

 17 17  0  0  0  0  0  0  0  0999 V2000
   38.0040   47.6410   28.7280 O   0  0  0  0  0  0  0  0  0  0  0  0
   41.4460   43.2780   30.7640 C   0  0  0  0  0  0  0  0  0  0  0  0
   41.6660   41.7410   30.3760 C   0  0  0  0  0  0  0  0  0  0  0  0
   41.4330   43.1980   32.5900 S   0  0  0  0  0  0  0  0  0  0  0  0
   39.1190   43.3660   29.0410 C   0  0  0  0  0  0  0  0  0  0  0  0
   38.2950   46.6040   29.9770 P   0  0  0  0  0  0  0  0  0  0  0  0
   40.4550   43.7770   29.7190 C   0  0  0  0  0  0  0  0  0  0  0  0
   39.4130   44.8750   31.8180 C   0  0  0  0  0  0  0  0  0  0  0  0
   36.9880   45.6910   30.1120 O   0  0  0  0  0  0  0  0  0  0  0  0
   40.8910   42.2340   26.4950 C   0  0  0  0  0  0  0  0  0  0  0  0
   42.2580   41.0120   31.1360 O   0  0  0  0  0  0  0  0  0  0  0  0
   40.2890   44.4300   32.9720 C   0  0  0  0  0  0  0  0  0  0  0  0
   39.5820   45.8500   29.4590 O   0  0  0  0  0  0  0  0  0  0  0  0
   38.4850   47.3940   31.1640 O   0  0  0  0  0  0  0  0  0  0  0  0
   40.2190   45.0610   30.5170 C   0  0  0  0  0  0  0  0  0  0  0  0
   40.9890   41.7960   27.8230 C   0  0  0  0  0  0  0  0  0  0  0  0
   41.2840   41.5800   29.0880 C   0  0  0  0  0  0  0  0  0  0  0  0
  1  6  2  0
  2  3  1  0
  2  4  1  0
  3 11  2  0
  4 12  1  0
  6  9  1  0
  6 14  1  0
  7  5  1  0
  7 15  1  0
  7  2  1  0
  8 12  1  0
 10 16  1  0
 13  6  1  0
 15 13  1  0
 15  8  1  0
 16 17  3  0
 17  3  1  0
M  END
$$$$

     RDKit          3D

 16 17  0  0  0  0  0  0  0  0999 V2000
   40.3710   41.6240   32.9900 C   0  0  0  0  0  0  0  0  0  0  0  0
   39.9650   43.6040   32.0110 O   0  0  0  0  0  0  0  0  0  0  0  0
   41.1180   45.2700   30.8350 P   0  0  0  0  0  0  0  0  0  0  0  0
   40.9640   40.7930   30.2820 C   0  0  0  0  0  0  0  0  0  0  0  0
   40.2730   46.0720   31.5330 O   0  0  0  0  0  0  0  0  0  0  0  0
   42.5630   43.8620   32.1350 N   0  0  0  0  0  0  0  0  0  0  0  0
   39.6220   40.6930   30.9120 C   0  0  0  0  0  0  0  0  0  0  0  0
   41.9000   45.4890   29.8160 O   0  0  0  0  0  0  0  0  0  0  0  0
   38.8480   40.7430   29.9050 O   0  0  0  0  0  0  0  0  0  0  0  0
   41.3080   43.6870   31.6880 C   0  0  0  0  0  0  0  0  0  0  0  0
   38.7480   42.8110   31.6160 C   0  0  0  0  0  0  0  0  0  0  0  0
   43.8470   41.7320   29.7170 I   0  0  0  0  0  0  0  0  0  0  0  0
   39.1810   41.4420   32.0680 C   0  0  0  0  0  0  0  0  0  0  0  0
   41.4130   39.5330   29.9600 O   0  0  0  0  0  0  0  0  0  0  0  0
   41.2660   42.1440   31.8940 N   0  0  0  0  0  0  0  0  0  0  0  0
   42.1050   41.1270   31.2920 C   0  0  0  0  0  0  0  0  0  0  0  0
  3  8  2  0
  3  5  1  0
  3 10  1  0
  4 14  1  0
  4  7  1  0
  4 16  1  0
  7  9  1  0
  7 13  1  0
 10 15  1  0
 10  2  1  0
 10  6  1  0
 11  2  1  0
 13 11  1  0
 13  1  1  0
 15  1  1  0
 16 12  1  0
 16 15  1  0
M  END
$$$$

     RDKit          3D

 10 10  0  0  0  0  0  0  0  0999 V2000
   39.9660   44.4260   28.6190 C   0  0  0  0  0  0  0  0  0  0  0  0
   43.3890   41.5370   30.8740 C   0  0  0  0  0  0  0  0  0  0  0  0
   42.9760   42.0040   31.8880 C   0  0  0  0  0  0  0  0  0  0  0  0
   40.3610   42.7830   28.8030 C   0  0  0  0  0  0  0  0  0  0  0  0
   42.8220   41.4370   28.5600 O   0  0  0  0  0  0  0  0  0  0  0  0
   42.0560   43.2420   31.8640 C   0  0  0  0  0  0  0  0  0  0  0  0
   40.8270   43.3050   30.9400 C   0  0  0  0  0  0  0  0  0  0  0  0
   42.0550   41.5200   29.8420 C   0  0  0  0  0  0  0  0  0  0  0  0
   42.3420   44.0760   32.5680 O   0  0  0  0  0  0  0  0  0  0  0  0
   41.1360   42.5220   29.7570 C   0  0  0  0  0  0  0  0  0  0  0  0
  1  4  1  0
  2  3  1  0
  6  3  1  0
  6  9  2  0
  7  6  1  0
  8  5  1  0
  8  2  1  0
 10  4  1  0
 10  8  1  0
 10  7  1  0
M  END
$$$$

     RDKit          3D

 11 11  0  0  0  0  0  0  0  0999 V2000
   41.7150   42.2240   30.4550 C   0  0  0  0  0  0  0  0  0  0  0  0
   39.9860   41.1070   29.2610 N   0  0  0  0  0  0  0  0  0  0  0  0
   39.5430   42.2320   31.5030 C   0  0  0  0  0  0  0  0  0  0  0  0
   41.2490   42.8100   32.8170 C   0  0  0  0  0  0  0  0  0  0  0  0
   43.6430   43.3110   33.8020 C   0  0  0  0  0  0  0  0  0  0  0  0
   42.1400   42.8740   34.1300 C   0  0  0  0  0  0  0  0  0  0  0  0
   40.0290   42.5230   32.7210 N   0  0  0  0  0  0  0  0  0  0  0  0
   42.9090   41.9720   29.1050 Br  0  0  0  0  0  0  0  0  0  0  0  0
   42.1100   42.8260   31.6250 C   0  0  0  0  0  0  0  0  0  0  0  0
   38.1420   42.3870   31.3380 C   0  0  0  0  0  0  0  0  0  0  0  0
   40.3790   41.6990   30.3750 C   0  0  0  0  0  0  0  0  0  0  0  0
  1  9  1  0
  2 11  1  0
  3  7  2  0
  4  6  1  0
  5  6  1  0
  7  4  1  0
  8  1  1  0
  9  4  2  0
 10  3  1  0
 11  1  2  0
 11  3  1  0
M  END
$$$$

     RDKit          3D

  7  6  0  0  0  0  0  0  0  0999 V2000
   42.6900   43.1950   32.5820 O   0  0  0  0  0  0  0  0  0  0  0  0
   41.6820   43.2760   31.9280 C   0  0  0  0  0  0  0  0  0  0  0  0
   43.8480   41.8520   29.4930 C   0  0  0  0  0  0  0  0  0  0  0  0
   42.7240   41.3500   30.4470 C   0  0  0  0  0  0  0  0  0  0  0  0
   40.7980   42.6750   29.5760 O   0  0  0  0  0  0  0  0  0  0  0  0
   41.6400   42.3980   30.6210 C   0  0  0  0  0  0  0  0  0  0  0  0
   40.6370   44.1880   32.2800 O   0  0  0  0  0  0  0  0  0  0  0  0
  2  7  2  0
  2  1  1  0
  3  4  1  0
  4  6  1  0
  6  5  1  0
  6  2  1  0
M  END
$$$$

     RDKit          3D

  8  7  0  0  0  0  0  0  0  0999 V2000
   40.7500   45.6210   31.8380 C   0  0  0  0  0  0  0  0  0  0  0  0
   42.0450   42.7300   31.0650 C   0  0  0  0  0  0  0  0  0  0  0  0
   42.8540   40.6660   29.9230 C   0  0  0  0  0  0  0  0  0  0  0  0
   41.0450   40.7530   31.5000 O   0  0  0  0  0  0  0  0  0  0  0  0
   41.9540   41.3250   30.9100 C   0  0  0  0  0  0  0  0  0  0  0  0
   41.5020   43.5740   30.8440 C   0  0  0  0  0  0  0  0  0  0  0  0
   39.7350   45.1550   31.9640 O   0  0  0  0  0  0  0  0  0  0  0  0
   41.4600   44.8400   30.6540 C   0  0  0  0  0  0  0  0  0  0  0  0
  1  7  1  0
  3  5  1  0
  5  2  1  0
  5  4  2  0
  6  2  1  0
  8  6  1  0
  8  1  1  0
M  END
$$$$

     RDKit          3D

  7  6  0  0  0  0  0  0  0  0999 V2000
   44.6410   41.3350   29.6820 S   0  0  0  0  0  0  0  0  0  0  0  0
   42.6130   44.5610   31.5310 O   0  0  0  0  0  0  0  0  0  0  0  0
   42.2470   42.6060   30.3140 C   0  0  0  0  0  0  0  0  0  0  0  0
   42.8190   41.1750   30.2600 C   0  0  0  0  0  0  0  0  0  0  0  0
   45.2220   42.5400   30.8460 C   0  0  0  0  0  0  0  0  0  0  0  0
   41.7310   42.8200   32.6940 O   0  0  0  0  0  0  0  0  0  0  0  0
   42.2360   43.3790   31.6900 C   0  0  0  0  0  0  0  0  0  0  0  0
  1  4  1  0
  1  5  1  0
  2  7  2  0
  3  7  1  0
  4  3  1  0
  7  6  1  0
M  END
$$$$

     RDKit          3D

 15 15  0  0  0  0  0  0  0  0999 V2000
   43.0650   40.5220   31.0430 I   0  0  0  0  0  0  0  0  0  0  0  0
   40.2970   40.2020   33.3890 C   0  0  0  0  0  0  0  0  0  0  0  0
   39.4330   40.2630   30.6950 C   0  0  0  0  0  0  0  0  0  0  0  0
   38.6780   39.7930   29.8830 O   0  0  0  0  0  0  0  0  0  0  0  0
   39.9670   41.3600   33.7380 O   0  0  0  0  0  0  0  0  0  0  0  0
   39.5350   41.7470   30.8950 C   0  0  0  0  0  0  0  0  0  0  0  0
   41.3730   40.1220   32.3140 C   0  0  0  0  0  0  0  0  0  0  0  0
   40.4040   39.3830   31.4140 C   0  0  0  0  0  0  0  0  0  0  0  0
   39.8820   38.8950   33.7310 C   0  0  0  0  0  0  0  0  0  0  0  0
   39.1580   44.6340   30.0140 C   0  0  0  0  0  0  0  0  0  0  0  0
   38.4270   42.4330   30.8010 O   0  0  0  0  0  0  0  0  0  0  0  0
   39.6700   38.5110   32.4140 C   0  0  0  0  0  0  0  0  0  0  0  0
   38.0530   43.8060   30.6820 C   0  0  0  0  0  0  0  0  0  0  0  0
   40.6400   42.2760   31.1130 O   0  0  0  0  0  0  0  0  0  0  0  0
   38.5410   45.7260   29.1650 C   0  0  0  0  0  0  0  0  0  0  0  0
  2  9  1  0
  2  5  2  0
  3  6  1  0
  4  3  2  0
  6 14  2  0
  7  1  1  0
  7  2  1  0
  8  3  1  0
  8  7  1  0
  8 12  1  0
 10 13  1  0
 11  6  1  0
 12  9  1  0
 13 11  1  0
 15 10  1  0
M  END
$$$$

     RDKit          3D

 22 22  0  0  0  0  0  0  0  0999 V2000
   39.4350   42.5540   29.9120 C   0  0  0  0  0  0  0  0  0  0  0  0
   40.5980   41.7100   27.9180 O   0  0  0  0  0  0  0  0  0  0  0  0
   45.3730   43.3400   35.0890 C   0  0  0  0  0  0  0  0  0  0  0  0
   39.8840   41.4100   30.5600 O   0  0  0  0  0  0  0  0  0  0  0  0
   44.1730   43.5790   33.0450 N   0  0  0  0  0  0  0  0  0  0  0  0
   42.2410   41.8560   33.3300 P   0  0  0  0  0  0  0  0  0  0  0  0
   44.1570   43.1420   34.3680 C   0  0  0  0  0  0  0  0  0  0  0  0
   39.6500   42.4390   28.3210 C   0  0  0  0  0  0  0  0  0  0  0  0
   43.5850   41.5590   36.2630 C   0  0  0  0  0  0  0  0  0  0  0  0
   38.0780   42.6960   30.1390 C   0  0  0  0  0  0  0  0  0  0  0  0
   37.8530   42.2290   31.1120 C   0  0  0  0  0  0  0  0  0  0  0  0
   38.9930   43.2120   27.5210 O   0  0  0  0  0  0  0  0  0  0  0  0
   42.2120   41.1910   34.5790 O   0  0  0  0  0  0  0  0  0  0  0  0
   44.6030   42.1980   37.0440 C   0  0  0  0  0  0  0  0  0  0  0  0
   42.4430   40.7800   32.3670 O   0  0  0  0  0  0  0  0  0  0  0  0
   41.1700   40.9380   30.7740 C   0  0  0  0  0  0  0  0  0  0  0  0
   41.1890   38.7350   32.1270 C   0  0  0  0  0  0  0  0  0  0  0  0
   41.2050   40.1460   32.0580 C   0  0  0  0  0  0  0  0  0  0  0  0
   41.4800   39.8750   29.8160 N   0  0  0  0  0  0  0  0  0  0  0  0
   45.5450   43.0220   36.4280 C   0  0  0  0  0  0  0  0  0  0  0  0
   41.6680   43.0540   32.9440 O   0  0  0  0  0  0  0  0  0  0  0  0
   43.2080   41.9680   34.9460 C   0  0  0  0  0  0  0  0  0  0  0  0
  1 10  1  0
  1  4  1  0
  2  8  1  0
  3 20  1  0
  4 16  1  0
  5  7  1  0
  6 21  2  0
  6 13  1  0
  7 22  1  0
  7  3  2  0
  8  1  1  0
  9 14  1  0
 10 11  1  0
 12  8  2  0
 13 22  1  0
 15  6  1  0
 16 19  1  0
 16 18  1  0
 18 17  1  0
 18 15  1  0
 20 14  2  0
 22  9  2  0
M  END
$$$$

     RDKit          3D

 12 13  0  0  0  0  0  0  0  0999 V2000
   41.1980   44.7810   31.1830 C   0  0  0  0  0  0  0  0  0  0  0  0
   41.5930   42.4430   30.8800 C   0  0  0  0  0  0  0  0  0  0  0  0
   43.8860   41.3850   31.4010 C   0  0  0  0  0  0  0  0  0  0  0  0
   42.9520   41.2050   29.1220 C   0  0  0  0  0  0  0  0  0  0  0  0
   42.7030   41.9980   31.8580 C   0  0  0  0  0  0  0  0  0  0  0  0
   39.7450   43.1210   32.0660 C   0  0  0  0  0  0  0  0  0  0  0  0
   44.0100   41.0090   30.0270 C   0  0  0  0  0  0  0  0  0  0  0  0
   40.8680   43.6510   33.1420 C   0  0  0  0  0  0  0  0  0  0  0  0
   41.3600   43.1750   33.5770 O   0  0  0  0  0  0  0  0  0  0  0  0
   40.5380   43.6280   30.9300 C   0  0  0  0  0  0  0  0  0  0  0  0
   40.1080   45.0960   30.2390 N   0  0  0  0  0  0  0  0  0  0  0  0
   41.8080   41.8970   29.5060 C   0  0  0  0  0  0  0  0  0  0  0  0
  2 10  1  0
  2  5  1  0
  3  5  2  0
  4 12  1  0
  4  7  2  0
  6  8  1  0
  7  3  1  0
  8  9  2  0
 10  1  1  0
 10  6  1  0
 11 10  1  0
 11  1  1  0
 12  2  2  0
M  END
$$$$

     RDKit          3D

 12 12  0  0  0  0  0  0  0  0999 V2000
   39.8230   43.5440   29.4130 C   0  0  0  0  0  0  0  0  0  0  0  0
   40.0100   42.2340   31.5220 C   0  0  0  0  0  0  0  0  0  0  0  0
   40.9930   41.3430   29.3910 C   0  0  0  0  0  0  0  0  0  0  0  0
   42.0810   40.4550   32.7030 O   0  0  0  0  0  0  0  0  0  0  0  0
   40.9570   41.3310   30.8020 C   0  0  0  0  0  0  0  0  0  0  0  0
   40.2890   42.3720   28.6520 C   0  0  0  0  0  0  0  0  0  0  0  0
   39.7450   42.1430   32.8730 N   0  0  0  0  0  0  0  0  0  0  0  0
   39.4730   43.3170   30.7930 C   0  0  0  0  0  0  0  0  0  0  0  0
   39.9880   44.9200   28.8090 C   0  0  0  0  0  0  0  0  0  0  0  0
   42.7340   39.7750   30.6630 O   0  0  0  0  0  0  0  0  0  0  0  0
   41.9720   40.4160   31.4430 C   0  0  0  0  0  0  0  0  0  0  0  0
   39.9750   42.3010   27.1580 C   0  0  0  0  0  0  0  0  0  0  0  0
  1  8  1  0
  2  7  1  0
  3  5  2  0
  5 11  1  0
  5  2  1  0
  6  3  1  0
  6  1  2  0
  8  2  2  0
  9  1  1  0
 10 11  2  0
 11  4  1  0
 12  6  1  0
M  END
$$$$

     RDKit          3D

 14 14  0  0  0  0  0  0  0  0999 V2000
   40.1290   38.7470   31.9670 C   0  0  0  0  0  0  0  0  0  0  0  0
   37.6170   40.0950   32.3240 O   0  0  0  0  0  0  0  0  0  0  0  0
   38.6810   39.3260   31.5360 C   0  0  0  0  0  0  0  0  0  0  0  0
   40.5560   41.3360   30.3600 C   0  0  0  0  0  0  0  0  0  0  0  0
   38.4030   45.2440   29.0950 C   0  0  0  0  0  0  0  0  0  0  0  0
   41.3040   38.7680   30.9330 N   0  0  0  0  0  0  0  0  0  0  0  0
   38.6700   43.2110   31.4320 C   0  0  0  0  0  0  0  0  0  0  0  0
   41.1390   42.4560   29.7320 O   0  0  0  0  0  0  0  0  0  0  0  0
   37.0330   44.7390   29.2600 C   0  0  0  0  0  0  0  0  0  0  0  0
   41.5750   40.3860   30.9740 C   0  0  0  0  0  0  0  0  0  0  0  0
   39.3840   41.8340   31.3600 C   0  0  0  0  0  0  0  0  0  0  0  0
   38.2990   42.1840   30.3930 C   0  0  0  0  0  0  0  0  0  0  0  0
   36.0680   45.6270   28.5880 C   0  0  0  0  0  0  0  0  0  0  0  0
   36.4210   43.2970   30.0130 S   0  0  0  0  0  0  0  0  0  0  0  0
  3  1  1  0
  3  2  1  0
  4  8  1  0
  4 10  1  0
  5  9  1  0
  6 10  1  0
  6  1  1  0
  9 14  1  0
 11  4  1  0
 11  7  1  0
 12 14  1  0
 12 11  1  0
 12  7  1  0
 13  9  1  0
M  END
$$$$

     RDKit          3D

  8  7  0  0  0  0  0  0  0  0999 V2000
   41.2030   44.1550   31.5630 C   0  0  0  0  0  0  0  0  0  0  0  0
   41.6940   45.0980   33.7080 O   0  0  0  0  0  0  0  0  0  0  0  0
   43.0510   43.0100   29.1960 O   0  0  0  0  0  0  0  0  0  0  0  0
   42.4140   42.3000   30.0680 C   0  0  0  0  0  0  0  0  0  0  0  0
   41.1810   44.1590   33.1200 C   0  0  0  0  0  0  0  0  0  0  0  0
   40.4970   43.2310   33.6340 O   0  0  0  0  0  0  0  0  0  0  0  0
   41.5720   42.7370   31.1460 C   0  0  0  0  0  0  0  0  0  0  0  0
   42.6790   41.0870   30.0390 O   0  0  0  0  0  0  0  0  0  0  0  0
  1  5  1  0
  3  4  2  0
  4  7  1  0
  5  6  2  0
  5  2  1  0
  7  1  1  0
  8  4  1  0
M  END
$$$$

     RDKit          3D

 20 21  0  0  0  0  0  0  0  0999 V2000
   38.6670   39.7210   28.9680 O   0  0  0  0  0  0  0  0  0  0  0  0
   36.7100   42.8350   28.4600 C   0  0  0  0  0  0  0  0  0  0  0  0
   37.1270   45.1830   29.3520 O   0  0  0  0  0  0  0  0  0  0  0  0
   40.3250   41.2870   30.6110 C   0  0  0  0  0  0  0  0  0  0  0  0
   40.7580   43.3380   33.3800 O   0  0  0  0  0  0  0  0  0  0  0  0
   38.2620   41.0060   29.0380 C   0  0  0  0  0  0  0  0  0  0  0  0
   43.9170   40.5960   31.0750 O   0  0  0  0  0  0  0  0  0  0  0  0
   43.5610   42.5210   33.0910 C   0  0  0  0  0  0  0  0  0  0  0  0
   43.6230   42.9180   34.3750 N   0  0  0  0  0  0  0  0  0  0  0  0
   41.5710   40.2650   30.5760 N   0  0  0  0  0  0  0  0  0  0  0  0
   40.0030   41.4160   32.1260 C   0  0  0  0  0  0  0  0  0  0  0  0
   37.4400   43.7910   29.2270 C   0  0  0  0  0  0  0  0  0  0  0  0
   37.1070   41.4730   28.3740 C   0  0  0  0  0  0  0  0  0  0  0  0
   35.6810   45.3390   29.4400 C   0  0  0  0  0  0  0  0  0  0  0  0
   42.4230   41.9100   32.3930 C   0  0  0  0  0  0  0  0  0  0  0  0
   42.7200   40.8580   31.2990 C   0  0  0  0  0  0  0  0  0  0  0  0
   39.0130   41.9690   29.8100 C   0  0  0  0  0  0  0  0  0  0  0  0
   39.3290   44.2510   30.6590 O   0  0  0  0  0  0  0  0  0  0  0  0
   41.0820   42.3160   32.7610 C   0  0  0  0  0  0  0  0  0  0  0  0
   38.6000   43.3580   29.9210 C   0  0  0  0  0  0  0  0  0  0  0  0
  1  6  1  0
  2 12  1  0
  3 14  1  0
  4 17  1  0
  4 11  1  0
  6 17  2  0
  7 16  2  0
  8  9  1  0
 10  4  1  0
 10 16  1  0
 11 19  1  0
 12  3  1  0
 12 20  2  0
 13  2  2  0
 13  6  1  0
 15 19  1  0
 15  8  1  0
 16 15  1  0
 17 20  1  0
 19  5  2  0
 20 18  1  0
M  END
$$$$

     RDKit          3D

 10  9  0  0  0  0  0  0  0  0999 V2000
   41.6240   43.2620   33.7180 C   0  0  0  0  0  0  0  0  0  0  0  0
   43.9110   42.8300   32.0680 C   0  0  0  0  0  0  0  0  0  0  0  0
   42.5920   41.5370   30.5510 O   0  0  0  0  0  0  0  0  0  0  0  0
   41.3680   43.2870   35.4820 I   0  0  0  0  0  0  0  0  0  0  0  0
   41.8190   43.2150   30.7810 C   0  0  0  0  0  0  0  0  0  0  0  0
   43.2590   42.6350   33.4670 N   0  0  0  0  0  0  0  0  0  0  0  0
   42.1170   42.3530   29.6950 N   0  0  0  0  0  0  0  0  0  0  0  0
   40.9920   43.2600   32.9310 O   0  0  0  0  0  0  0  0  0  0  0  0
   41.5870   42.4560   28.8670 O   0  0  0  0  0  0  0  0  0  0  0  0
   42.9610   43.5800   31.4800 C   0  0  0  0  0  0  0  0  0  0  0  0
  1  4  1  0
  2  6  1  0
  5 10  1  0
  6  1  1  0
  7  3  2  0
  7  5  1  0
  8  1  2  0
  9  7  2  0
 10  2  1  0
M  END
$$$$

     RDKit          3D

 13 13  0  0  0  0  0  0  0  0999 V2000
   40.0010   42.2870   33.6550 O   0  0  0  0  0  0  0  0  0  0  0  0
   39.3650   43.4500   31.9120 O   0  0  0  0  0  0  0  0  0  0  0  0
   45.5050   42.7590   33.0660 Br  0  0  0  0  0  0  0  0  0  0  0  0
   42.5400   42.4990   34.1080 O   0  0  0  0  0  0  0  0  0  0  0  0
   42.6800   41.7100   28.1230 Br  0  0  0  0  0  0  0  0  0  0  0  0
   42.6970   42.6000   32.9590 C   0  0  0  0  0  0  0  0  0  0  0  0
   43.8230   41.9240   30.8000 C   0  0  0  0  0  0  0  0  0  0  0  0
   40.3100   43.5250   28.9680 I   0  0  0  0  0  0  0  0  0  0  0  0
   41.4930   42.7980   31.9470 C   0  0  0  0  0  0  0  0  0  0  0  0
   42.8140   42.1210   29.9860 C   0  0  0  0  0  0  0  0  0  0  0  0
   41.6400   42.8140   30.5040 C   0  0  0  0  0  0  0  0  0  0  0  0
   40.2030   42.8850   32.5830 N   0  0  0  0  0  0  0  0  0  0  0  0
   43.8710   42.3760   32.2360 C   0  0  0  0  0  0  0  0  0  0  0  0
  2 12  2  0
  5 10  1  0
  6  4  2  0
  7 13  1  0
  9 12  1  0
  9  6  1  0
 10 11  1  0
 10  7  2  0
 11  8  1  0
 11  9  1  0
 12  1  2  0
 13  6  1  0
 13  3  1  0
M  END
$$$$

     RDKit          3D

 17 18  0  0  0  0  0  0  0  0999 V2000
   39.5950   37.9130   31.8250 C   0  0  0  0  0  0  0  0  0  0  0  0
   41.8100   42.7620   32.4380 C   0  0  0  0  0  0  0  0  0  0  0  0
   44.8010   44.7080   31.4120 F   0  0  0  0  0  0  0  0  0  0  0  0
   43.0370   45.2680   32.9000 C   0  0  0  0  0  0  0  0  0  0  0  0
   40.5380   40.2130   33.3700 N   0  0  0  0  0  0  0  0  0  0  0  0
   40.4370   37.9530   32.8980 N   0  0  0  0  0  0  0  0  0  0  0  0
   43.6770   44.3720   31.9410 C   0  0  0  0  0  0  0  0  0  0  0  0
   42.0170   44.7240   33.8440 C   0  0  0  0  0  0  0  0  0  0  0  0
   39.4650   40.1550   31.0780 C   0  0  0  0  0  0  0  0  0  0  0  0
   38.5620   39.0110   31.6290 C   0  0  0  0  0  0  0  0  0  0  0  0
   43.7320   42.0830   31.3700 F   0  0  0  0  0  0  0  0  0  0  0  0
   40.8500   41.9790   31.6420 C   0  0  0  0  0  0  0  0  0  0  0  0
   43.1210   43.0160   32.0300 C   0  0  0  0  0  0  0  0  0  0  0  0
   40.6400   39.0070   33.6860 C   0  0  0  0  0  0  0  0  0  0  0  0
   41.4100   43.4750   33.5650 C   0  0  0  0  0  0  0  0  0  0  0  0
   39.9780   40.9550   32.2660 C   0  0  0  0  0  0  0  0  0  0  0  0
   41.0050   38.7440   34.9430 N   0  0  0  0  0  0  0  0  0  0  0  0
  1  6  2  0
  2 15  1  0
  3  7  1  0
  4  8  1  0
  5 14  2  0
  6 14  1  0
  7 13  1  0
  7  4  2  0
  9 10  1  0
  9 16  1  0
 10  1  1  0
 11 13  1  0
 12  2  1  0
 13  2  2  0
 14 17  1  0
 15  8  2  0
 16 12  1  0
 16  5  1  0
M  END
$$$$

     RDKit          3D

 19 21  0  0  0  0  0  0  0  0999 V2000
   42.6140   39.3680   33.0130 C   0  0  0  0  0  0  0  0  0  0  0  0
   37.1560   44.8440   31.0070 C   0  0  0  0  0  0  0  0  0  0  0  0
   39.5800   44.9800   29.6770 C   0  0  0  0  0  0  0  0  0  0  0  0
   41.3150   38.8810   32.2170 C   0  0  0  0  0  0  0  0  0  0  0  0
   39.6420   42.5400   29.8690 N   0  0  0  0  0  0  0  0  0  0  0  0
   42.3410   41.5110   31.5380 C   0  0  0  0  0  0  0  0  0  0  0  0
   38.9920   43.7940   30.0040 C   0  0  0  0  0  0  0  0  0  0  0  0
   41.6110   39.2930   30.8440 N   0  0  0  0  0  0  0  0  0  0  0  0
   37.7540   46.1040   30.7740 C   0  0  0  0  0  0  0  0  0  0  0  0
   41.3950   40.8610   30.5900 C   0  0  0  0  0  0  0  0  0  0  0  0
   44.6580   42.3830   31.3430 C   0  0  0  0  0  0  0  0  0  0  0  0
   40.9200   42.2780   29.8610 C   0  0  0  0  0  0  0  0  0  0  0  0
   37.1870   42.2140   30.7970 C   0  0  0  0  0  0  0  0  0  0  0  0
   39.7310   38.6630   32.1450 C   0  0  0  0  0  0  0  0  0  0  0  0
   43.1840   40.5700   32.3000 N   0  0  0  0  0  0  0  0  0  0  0  0
   41.7420   42.7960   29.1280 O   0  0  0  0  0  0  0  0  0  0  0  0
   37.7790   43.6500   30.6300 C   0  0  0  0  0  0  0  0  0  0  0  0
   38.9750   46.1810   30.1350 C   0  0  0  0  0  0  0  0  0  0  0  0
   43.6200   41.2430   31.1320 C   0  0  0  0  0  0  0  0  0  0  0  0
  3  7  2  0
  3 18  1  0
  4 14  1  0
  4  1  1  0
  5  7  1  0
  6 15  1  0
  7 17  1  0
  8  4  1  0
  9  2  1  0
 10  8  1  0
 10  6  1  0
 12  5  1  0
 12 10  1  0
 15  1  1  0
 16 12  2  0
 17 13  1  0
 17  2  2  0
 18  9  2  0
 19 11  1  0
 19  6  1  0
 19 15  1  0
M  END
$$$$
