
     RDKit          3D

 14 14  0  0  0  0  0  0  0  0999 V2000
   41.4070   44.1780   30.0830 O   0  0  0  0  0  0  0  0  0  0  0  0
   40.3430   41.8830   25.8180 O   0  0  0  0  0  0  0  0  0  0  0  0
   39.3550   42.8590   30.4910 C   0  0  0  0  0  0  0  0  0  0  0  0
   38.9850   38.2220   29.3420 C   0  0  0  0  0  0  0  0  0  0  0  0
   39.8650   39.1050   30.1440 C   0  0  0  0  0  0  0  0  0  0  0  0
   40.2820   43.9460   30.9820 C   0  0  0  0  0  0  0  0  0  0  0  0
   38.9080   40.6600   28.5170 N   0  0  0  0  0  0  0  0  0  0  0  0
   37.9460   42.4840   25.7390 O   0  0  0  0  0  0  0  0  0  0  0  0
   39.7010   40.4980   29.6390 C   0  0  0  0  0  0  0  0  0  0  0  0
   40.2180   41.6060   30.5000 C   0  0  0  0  0  0  0  0  0  0  0  0
   39.4340   45.1120   31.1710 O   0  0  0  0  0  0  0  0  0  0  0  0
   39.1010   42.1680   26.3760 S   0  0  0  0  0  0  0  0  0  0  0  0
   38.7080   43.2120   28.8980 S   0  0  0  0  0  0  0  0  0  0  0  0
   39.0130   41.8990   27.9040 C   0  0  0  0  0  0  0  0  0  0  0  0
  1  6  1  0
  2 12  1  0
  3 10  1  0
  3  6  1  0
  4  5  1  0
  6 11  1  0
  7  9  1  0
  9  5  1  0
  9 10  1  0
 12  8  2  0
 13  3  1  0
 14 12  1  0
 14  7  1  0
 14 13  1  0
M  END
$$$$

     RDKit          3D

 14 14  0  0  0  0  0  0  0  0999 V2000
   41.8700   44.4300   29.7270 O   0  0  0  0  0  0  0  0  0  0  0  0
   38.2260   41.0350   28.3300 C   0  0  0  0  0  0  0  0  0  0  0  0
   41.6490   42.9720   31.5630 O   0  0  0  0  0  0  0  0  0  0  0  0
   41.8000   43.1580   30.0110 S   0  0  0  0  0  0  0  0  0  0  0  0
   38.3750   40.9910   29.7450 C   0  0  0  0  0  0  0  0  0  0  0  0
   40.4880   42.0960   29.4700 C   0  0  0  0  0  0  0  0  0  0  0  0
   36.9090   40.7890   27.4880 C   0  0  0  0  0  0  0  0  0  0  0  0
   36.9770   40.0520   26.4980 O   0  0  0  0  0  0  0  0  0  0  0  0
   39.5130   41.5350   30.2980 C   0  0  0  0  0  0  0  0  0  0  0  0
   42.9460   42.1650   30.0350 O   0  0  0  0  0  0  0  0  0  0  0  0
   40.5300   41.7230   28.1880 C   0  0  0  0  0  0  0  0  0  0  0  0
   39.3650   41.3540   27.5120 C   0  0  0  0  0  0  0  0  0  0  0  0
   39.3590   41.4540   26.2110 N   0  0  0  0  0  0  0  0  0  0  0  0
   35.7760   41.5520   27.9090 N   0  0  0  0  0  0  0  0  0  0  0  0
  1  4  1  0
  2  5  1  0
  4 10  1  0
  4  3  1  0
  5  9  2  0
  6  4  1  0
  6  9  1  0
  7 14  1  0
  7  2  1  0
  8  7  2  0
 11  6  2  0
 12 11  1  0
 12  2  2  0
 13 12  1  0
M  END
$$$$

     RDKit          3D

 13 13  0  0  0  0  0  0  0  0999 V2000
   38.3670   41.1340   27.2300 C   0  0  0  0  0  0  0  0  0  0  0  0
   39.7440   39.4260   28.6460 O   0  0  0  0  0  0  0  0  0  0  0  0
   39.0930   40.7430   28.6280 C   0  0  0  0  0  0  0  0  0  0  0  0
   39.9930   41.6520   29.0330 C   0  0  0  0  0  0  0  0  0  0  0  0
   40.8450   46.1090   26.2220 O   0  0  0  0  0  0  0  0  0  0  0  0
   41.2070   41.2660   29.5130 O   0  0  0  0  0  0  0  0  0  0  0  0
   38.8920   43.3470   27.7330 C   0  0  0  0  0  0  0  0  0  0  0  0
   39.5010   42.8610   29.0400 C   0  0  0  0  0  0  0  0  0  0  0  0
   40.3260   44.9420   26.2800 C   0  0  0  0  0  0  0  0  0  0  0  0
   40.8230   44.0110   25.5980 O   0  0  0  0  0  0  0  0  0  0  0  0
   37.9840   40.7740   29.6920 C   0  0  0  0  0  0  0  0  0  0  0  0
   39.2320   44.6630   27.2660 C   0  0  0  0  0  0  0  0  0  0  0  0
   38.9510   42.3450   26.7000 O   0  0  0  0  0  0  0  0  0  0  0  0
  1  3  1  0
  3  2  1  0
  3  4  1  0
  3 11  1  0
  4  8  1  0
  4  6  1  0
  5  9  1  0
  7 12  1  0
  7  8  1  0
  9 12  1  0
 10  9  2  0
 13  1  1  0
 13  7  1  0
M  END
$$$$

     RDKit          3D

 11 11  0  0  0  0  0  0  0  0999 V2000
   42.7350   42.2500   30.0350 O   0  0  0  0  0  0  0  0  0  0  0  0
   40.9180   39.7280   28.8970 O   0  0  0  0  0  0  0  0  0  0  0  0
   39.6190   41.6250   28.4600 C   0  0  0  0  0  0  0  0  0  0  0  0
   38.6010   40.6220   30.3640 O   0  0  0  0  0  0  0  0  0  0  0  0
   37.1450   42.2540   29.5640 C   0  0  0  0  0  0  0  0  0  0  0  0
   38.2870   41.3820   29.4640 C   0  0  0  0  0  0  0  0  0  0  0  0
   39.1880   42.0420   27.1240 N   0  0  0  0  0  0  0  0  0  0  0  0
   41.2730   42.1490   27.5640 C   0  0  0  0  0  0  0  0  0  0  0  0
   39.5220   42.6240   29.3680 N   0  0  0  0  0  0  0  0  0  0  0  0
   42.4380   42.9010   28.6520 C   0  0  0  0  0  0  0  0  0  0  0  0
   40.9800   40.9570   28.4400 C   0  0  0  0  0  0  0  0  0  0  0  0
  3  7  1  0
  3  9  1  0
  3  6  1  0
  6  5  1  0
  6  4  1  0
  8 11  1  0
  8 10  1  0
  9  6  1  0
 10  1  1  0
 11  3  1  0
 11  2  1  0
M  END
$$$$

     RDKit          3D

 16 15  0  0  0  0  0  0  0  0999 V2000
   39.1990   42.0250   28.5110 C   0  0  0  0  0  0  0  0  0  0  0  0
   40.3200   42.4260   23.1330 N   0  0  0  0  0  0  0  0  0  0  0  0
   41.2960   41.7390   23.3690 O   0  0  0  0  0  0  0  0  0  0  0  0
   39.4240   40.5790   28.4420 N   0  0  0  0  0  0  0  0  0  0  0  0
   38.0990   40.0800   28.1740 C   0  0  0  0  0  0  0  0  0  0  0  0
   39.5760   42.6270   24.3790 C   0  0  0  0  0  0  0  0  0  0  0  0
   37.6130   40.8620   26.9820 C   0  0  0  0  0  0  0  0  0  0  0  0
   37.7620   43.1180   25.8580 N   0  0  0  0  0  0  0  0  0  0  0  0
   38.8570   41.3300   24.7100 C   0  0  0  0  0  0  0  0  0  0  0  0
   38.4250   41.7680   26.0580 C   0  0  0  0  0  0  0  0  0  0  0  0
   37.6760   41.7380   30.2660 O   0  0  0  0  0  0  0  0  0  0  0  0
   37.7280   44.2320   25.0160 C   0  0  0  0  0  0  0  0  0  0  0  0
   37.0100   39.7770   26.2110 O   0  0  0  0  0  0  0  0  0  0  0  0
   38.0720   42.2900   29.3680 C   0  0  0  0  0  0  0  0  0  0  0  0
   39.8530   43.4960   24.9420 O   0  0  0  0  0  0  0  0  0  0  0  0
   37.6510   45.1460   24.6180 O   0  0  0  0  0  0  0  0  0  0  0  0
  1 14  1  0
  2  3  1  0
  2  6  1  0
  4  1  1  0
  5  4  1  0
  6  9  1  0
  6 15  2  0
  7 13  1  0
  7  5  1  0
  8 10  1  0
 10  9  1  0
 10  7  1  0
 12  8  1  0
 14 11  2  0
 16 12  1  0
M  END
$$$$

     RDKit          3D

  8  7  0  0  0  0  0  0  0  0999 V2000
   38.5660   40.9140   30.0130 C   0  0  0  0  0  0  0  0  0  0  0  0
   38.6170   42.0640   31.4620 N   0  0  0  0  0  0  0  0  0  0  0  0
   38.7690   41.2180   27.7630 N   0  0  0  0  0  0  0  0  0  0  0  0
   42.1230   42.3600   27.1770 C   0  0  0  0  0  0  0  0  0  0  0  0
   40.9490   41.8750   27.3760 C   0  0  0  0  0  0  0  0  0  0  0  0
   42.9220   43.0300   26.7380 C   0  0  0  0  0  0  0  0  0  0  0  0
   37.7190   41.1470   28.8050 C   0  0  0  0  0  0  0  0  0  0  0  0
   40.0550   41.5060   28.5250 C   0  0  0  0  0  0  0  0  0  0  0  0
  1  2  1  0
  3  8  1  0
  3  7  1  0
  4  5  1  0
  5  8  1  0
  6  4  3  0
  7  1  1  0
M  END
$$$$

     RDKit          3D

  9 10  0  0  0  0  0  0  0  0999 V2000
   38.6000   41.0800   27.6220 C   0  0  0  0  0  0  0  0  0  0  0  0
   38.6900   40.4530   29.0620 C   0  0  0  0  0  0  0  0  0  0  0  0
   39.5910   41.4710   29.7840 C   0  0  0  0  0  0  0  0  0  0  0  0
   40.5980   41.9670   28.5720 C   0  0  0  0  0  0  0  0  0  0  0  0
   39.7330   42.8530   26.2230 C   0  0  0  0  0  0  0  0  0  0  0  0
   38.6190   42.6750   29.8640 C   0  0  0  0  0  0  0  0  0  0  0  0
   38.5430   43.4590   25.5280 N   0  0  0  0  0  0  0  0  0  0  0  0
   38.5350   43.2000   28.4680 N   0  0  0  0  0  0  0  0  0  0  0  0
   39.3380   42.2830   27.5970 C   0  0  0  0  0  0  0  0  0  0  0  0
  1  2  1  0
  2  3  1  0
  3  4  1  0
  3  6  1  0
  7  5  1  0
  8  6  1  0
  9  5  1  0
  9  1  1  0
  9  8  1  0
  9  4  1  0
M  END
$$$$

     RDKit          3D

 19 21  0  0  0  0  0  0  0  0999 V2000
   38.9210   41.1270   30.4410 N   0  0  0  0  0  0  0  0  0  0  0  0
   38.7790   41.2540   24.4760 C   0  0  0  0  0  0  0  0  0  0  0  0
   38.4220   42.4250   29.7620 C   0  0  0  0  0  0  0  0  0  0  0  0
   38.9880   45.5030   30.4520 O   0  0  0  0  0  0  0  0  0  0  0  0
   38.0390   42.5260   27.4800 N   0  0  0  0  0  0  0  0  0  0  0  0
   37.8300   43.1090   26.1640 C   0  0  0  0  0  0  0  0  0  0  0  0
   39.0550   40.1740   29.5840 C   0  0  0  0  0  0  0  0  0  0  0  0
   39.6630   43.1240   29.3900 C   0  0  0  0  0  0  0  0  0  0  0  0
   38.4400   40.1700   28.1530 C   0  0  0  0  0  0  0  0  0  0  0  0
   40.0050   43.0360   24.6110 N   0  0  0  0  0  0  0  0  0  0  0  0
   38.4890   43.4590   28.5450 C   0  0  0  0  0  0  0  0  0  0  0  0
   41.5320   44.9520   30.1810 O   0  0  0  0  0  0  0  0  0  0  0  0
   37.5060   41.2630   27.6110 C   0  0  0  0  0  0  0  0  0  0  0  0
   40.0140   43.9310   31.9720 O   0  0  0  0  0  0  0  0  0  0  0  0
   38.7620   42.5480   25.2430 C   0  0  0  0  0  0  0  0  0  0  0  0
   40.0990   41.7380   23.9110 C   0  0  0  0  0  0  0  0  0  0  0  0
   40.0590   44.4760   30.5550 P   0  0  0  0  0  0  0  0  0  0  0  0
   37.9440   38.9780   27.7840 O   0  0  0  0  0  0  0  0  0  0  0  0
   39.5870   38.9750   29.9290 C   0  0  0  0  0  0  0  0  0  0  0  0
  2 15  1  0
  3  1  1  0
  4 17  1  0
  5 13  1  0
  6  5  1  0
  7 19  2  0
  7  1  1  0
  8  3  1  0
  8 17  1  0
  9 18  1  0
  9  7  1  0
 10 15  1  0
 11  5  1  0
 11  8  1  0
 11  3  1  0
 12 17  2  0
 13  9  1  0
 15  6  1  0
 16  2  1  0
 16 10  1  0
 17 14  1  0
M  END
$$$$

     RDKit          3D

  8  7  0  0  0  0  0  0  0  0999 V2000
   41.5780   41.9500   27.4910 O   0  0  0  0  0  0  0  0  0  0  0  0
   38.6770   41.0570   29.2110 C   0  0  0  0  0  0  0  0  0  0  0  0
   38.3540   42.2160   29.5250 O   0  0  0  0  0  0  0  0  0  0  0  0
   39.4270   40.9740   27.9090 C   0  0  0  0  0  0  0  0  0  0  0  0
   40.4240   42.1130   29.5840 C   0  0  0  0  0  0  0  0  0  0  0  0
   38.2320   39.9940   29.6960 O   0  0  0  0  0  0  0  0  0  0  0  0
   40.1980   41.5710   30.5570 O   0  0  0  0  0  0  0  0  0  0  0  0
   40.6740   41.7270   28.2770 C   0  0  0  0  0  0  0  0  0  0  0  0
  1  8  2  0
  2  3  2  0
  2  6  1  0
  4  8  1  0
  4  2  1  0
  5  7  2  0
  8  5  1  0
M  END
$$$$

     RDKit          3D

  6  5  0  0  0  0  0  0  0  0999 V2000
   38.9200   42.5570   29.3230 C   0  0  0  0  0  0  0  0  0  0  0  0
   40.5350   40.5730   28.9470 C   0  0  0  0  0  0  0  0  0  0  0  0
   41.0930   41.5370   27.8490 C   0  0  0  0  0  0  0  0  0  0  0  0
   39.0000   42.8380   30.3520 N   0  0  0  0  0  0  0  0  0  0  0  0
   38.0280   40.1810   29.1430 C   0  0  0  0  0  0  0  0  0  0  0  0
   39.2880   40.9990   29.5510 C   0  0  0  0  0  0  0  0  0  0  0  0
  1  6  1  0
  1  4  1  0
  2  6  1  0
  3  2  1  0
  6  5  1  0
M  END
$$$$

     RDKit          3D

 22 22  0  0  0  0  0  0  0  0999 V2000
   41.7370   41.9280   31.6850 O   0  0  0  0  0  0  0  0  0  0  0  0
   38.5730   40.5220   29.0920 C   0  0  0  0  0  0  0  0  0  0  0  0
   39.6610   41.1550   29.9990 C   0  0  0  0  0  0  0  0  0  0  0  0
   37.5100   41.3030   29.4780 O   0  0  0  0  0  0  0  0  0  0  0  0
   36.0680   41.2470   25.2370 C   0  0  0  0  0  0  0  0  0  0  0  0
   42.7770   43.5810   29.4000 C   0  0  0  0  0  0  0  0  0  0  0  0
   42.2820   42.2290   29.2820 N   0  0  0  0  0  0  0  0  0  0  0  0
   38.2040   38.2420   28.3480 N   0  0  0  0  0  0  0  0  0  0  0  0
   37.3490   42.3010   28.4460 C   0  0  0  0  0  0  0  0  0  0  0  0
   43.1320   41.5360   28.3260 C   0  0  0  0  0  0  0  0  0  0  0  0
   36.3870   41.7670   27.4460 C   0  0  0  0  0  0  0  0  0  0  0  0
   34.8770   42.9710   26.4970 C   0  0  0  0  0  0  0  0  0  0  0  0
   33.4650   44.0930   26.7110 Br  0  0  0  0  0  0  0  0  0  0  0  0
   39.2170   41.2970   31.3430 O   0  0  0  0  0  0  0  0  0  0  0  0
   38.4500   39.0760   29.3960 C   0  0  0  0  0  0  0  0  0  0  0  0
   34.8360   43.1570   23.6280 Br  0  0  0  0  0  0  0  0  0  0  0  0
   36.6910   40.8840   26.4240 C   0  0  0  0  0  0  0  0  0  0  0  0
   38.6930   38.6970   30.5400 O   0  0  0  0  0  0  0  0  0  0  0  0
   35.2680   42.5280   27.6290 C   0  0  0  0  0  0  0  0  0  0  0  0
   42.1290   41.3780   30.4430 C   0  0  0  0  0  0  0  0  0  0  0  0
   41.0060   40.4640   29.9530 C   0  0  0  0  0  0  0  0  0  0  0  0
   35.4080   42.4540   25.3270 C   0  0  0  0  0  0  0  0  0  0  0  0
  2 15  1  0
  2  4  1  0
  2  3  1  0
  3 14  1  0
  5 22  1  0
  5 17  1  0
  7  6  1  0
  7 20  1  0
  8 15  1  0
  9  4  1  0
 10  7  1  0
 11 19  1  0
 11  9  1  0
 12 13  1  0
 12 19  1  0
 15 18  2  0
 17 11  1  0
 20  1  1  0
 21  3  1  0
 21 20  1  0
 22 16  1  0
 22 12  1  0
M  END
$$$$

     RDKit          3D

  9  9  0  0  0  0  0  0  0  0999 V2000
   37.9780   41.0250   26.6430 O   0  0  0  0  0  0  0  0  0  0  0  0
   40.1180   40.9300   30.3840 C   0  0  0  0  0  0  0  0  0  0  0  0
   39.6990   43.6120   27.8880 C   0  0  0  0  0  0  0  0  0  0  0  0
   39.1110   43.0120   26.6880 C   0  0  0  0  0  0  0  0  0  0  0  0
   38.6570   43.5440   29.9930 O   0  0  0  0  0  0  0  0  0  0  0  0
   39.3650   41.4650   29.1820 C   0  0  0  0  0  0  0  0  0  0  0  0
   39.3070   42.9790   29.1710 C   0  0  0  0  0  0  0  0  0  0  0  0
   39.9930   41.0610   27.9200 N   0  0  0  0  0  0  0  0  0  0  0  0
   39.3190   41.5050   26.6920 C   0  0  0  0  0  0  0  0  0  0  0  0
  3  7  1  0
  4  9  1  0
  4  3  1  0
  6  2  1  0
  7  6  1  0
  7  5  2  0
  8  6  1  0
  9  1  1  0
  9  8  1  0
M  END
$$$$

     RDKit          3D

 22 24  0  0  0  0  0  0  0  0999 V2000
   40.3610   40.0750   28.1820 O   0  0  0  0  0  0  0  0  0  0  0  0
   39.6760   42.7260   26.4850 C   0  0  0  0  0  0  0  0  0  0  0  0
   40.7350   42.6920   31.7290 C   0  0  0  0  0  0  0  0  0  0  0  0
   40.9400   43.2040   27.1380 C   0  0  0  0  0  0  0  0  0  0  0  0
   35.1800   40.9360   25.0570 C   0  0  0  0  0  0  0  0  0  0  0  0
   38.3580   43.5190   31.0820 C   0  0  0  0  0  0  0  0  0  0  0  0
   38.1180   42.1920   30.2540 C   0  0  0  0  0  0  0  0  0  0  0  0
   40.2680   40.9650   28.8080 C   0  0  0  0  0  0  0  0  0  0  0  0
   39.4910   43.3630   32.1870 C   0  0  0  0  0  0  0  0  0  0  0  0
   40.7700   41.9010   30.6350 C   0  0  0  0  0  0  0  0  0  0  0  0
   38.5820   42.2820   27.3180 C   0  0  0  0  0  0  0  0  0  0  0  0
   41.6940   43.0120   34.0240 N   0  0  0  0  0  0  0  0  0  0  0  0
   41.9260   42.8640   32.5550 C   0  0  0  0  0  0  0  0  0  0  0  0
   38.5200   42.3360   28.7270 C   0  0  0  0  0  0  0  0  0  0  0  0
   41.7110   41.0390   30.3100 O   0  0  0  0  0  0  0  0  0  0  0  0
   35.0630   41.3620   26.3870 C   0  0  0  0  0  0  0  0  0  0  0  0
   36.2130   41.6730   27.1020 C   0  0  0  0  0  0  0  0  0  0  0  0
   40.2130   42.2160   29.2800 C   0  0  0  0  0  0  0  0  0  0  0  0
   37.4370   41.6910   26.4730 C   0  0  0  0  0  0  0  0  0  0  0  0
   36.4250   40.8380   24.4450 C   0  0  0  0  0  0  0  0  0  0  0  0
   37.5480   41.2370   25.1290 C   0  0  0  0  0  0  0  0  0  0  0  0
   40.5710   43.5320   28.5480 C   0  0  0  0  0  0  0  0  0  0  0  0
  1  8  1  0
  2  4  1  0
  2 11  2  0
  3  9  1  0
  3 13  1  0
  4 22  1  0
  5 16  1  0
  6  9  1  0
  7  6  1  0
 10 15  1  0
 10  3  1  0
 11 14  1  0
 13 12  1  0
 14 18  1  0
 14  7  1  0
 16 17  2  0
 18  8  1  0
 18 10  1  0
 19 17  1  0
 19 11  1  0
 20  5  2  0
 20 21  1  0
 21 19  2  0
 22 18  1  0
M  END
$$$$

     RDKit          3D

 10 10  0  0  0  0  0  0  0  0999 V2000
   41.4100   43.3830   29.2750 N   0  0  0  0  0  0  0  0  0  0  0  0
   38.3730   41.1870   27.3840 C   0  0  0  0  0  0  0  0  0  0  0  0
   37.4230   40.3700   27.0920 O   0  0  0  0  0  0  0  0  0  0  0  0
   40.4420   42.4830   29.1040 C   0  0  0  0  0  0  0  0  0  0  0  0
   39.4480   42.7700   31.1960 O   0  0  0  0  0  0  0  0  0  0  0  0
   40.8350   41.5250   27.9540 C   0  0  0  0  0  0  0  0  0  0  0  0
   37.9620   42.3540   29.5420 N   0  0  0  0  0  0  0  0  0  0  0  0
   38.0700   42.3720   28.1020 N   0  0  0  0  0  0  0  0  0  0  0  0
   39.7110   40.9690   27.0430 N   0  0  0  0  0  0  0  0  0  0  0  0
   39.3070   42.5280   30.0090 C   0  0  0  0  0  0  0  0  0  0  0  0
  2  8  1  0
  3  2  2  0
  4  1  1  0
  4 10  1  0
  6  4  1  0
  7 10  1  0
  8  7  1  0
  9  2  1  0
  9  6  2  0
 10  5  2  0
M  END
$$$$

     RDKit          3D

 10  9  0  0  0  0  0  0  0  0999 V2000
   42.4120   42.8430   27.0250 O   0  0  0  0  0  0  0  0  0  0  0  0
   40.0980   43.4910   26.3980 O   0  0  0  0  0  0  0  0  0  0  0  0
   41.0650   42.4920   26.8040 P   0  0  0  0  0  0  0  0  0  0  0  0
   39.4490   41.6450   29.0150 P   0  0  0  0  0  0  0  0  0  0  0  0
   40.7330   41.3750   26.0160 O   0  0  0  0  0  0  0  0  0  0  0  0
   39.3210   40.6290   29.9450 O   0  0  0  0  0  0  0  0  0  0  0  0
   40.7510   41.9630   28.2620 O   0  0  0  0  0  0  0  0  0  0  0  0
   39.5110   42.7540   29.8480 O   0  0  0  0  0  0  0  0  0  0  0  0
   37.3310   42.6420   27.7870 C   0  0  0  0  0  0  0  0  0  0  0  0
   38.3210   41.5670   27.7650 N   0  0  0  0  0  0  0  0  0  0  0  0
  2  3  1  0
  3  1  1  0
  3  7  1  0
  4  8  2  0
  4  6  1  0
  5  3  2  0
  7  4  1  0
 10  9  1  0
 10  4  1  0
M  END
$$$$

     RDKit          3D

 12 11  0  0  0  0  0  0  0  0999 V2000
   38.3760   41.0190   28.0380 C   0  0  0  0  0  0  0  0  0  0  0  0
   40.1120   41.4830   29.9270 P   0  0  0  0  0  0  0  0  0  0  0  0
   39.6320   43.2590   32.2040 C   0  0  0  0  0  0  0  0  0  0  0  0
   41.5250   41.4580   29.7590 O   0  0  0  0  0  0  0  0  0  0  0  0
   42.0220   42.5430   32.4630 C   0  0  0  0  0  0  0  0  0  0  0  0
   39.7300   40.8020   28.4720 O   0  0  0  0  0  0  0  0  0  0  0  0
   39.6330   43.0400   30.7150 C   0  0  0  0  0  0  0  0  0  0  0  0
   37.5930   39.7080   28.2420 C   0  0  0  0  0  0  0  0  0  0  0  0
   40.7630   42.7680   33.0720 C   0  0  0  0  0  0  0  0  0  0  0  0
   38.1430   41.5680   26.6050 C   0  0  0  0  0  0  0  0  0  0  0  0
   42.4760   43.4920   31.7130 O   0  0  0  0  0  0  0  0  0  0  0  0
   39.5910   40.3900   30.9800 O   0  0  0  0  0  0  0  0  0  0  0  0
  1  8  1  0
  1  6  1  0
  2  4  2  0
  2  7  1  0
  2 12  1  0
  3  9  1  0
  5  9  1  0
  6  2  1  0
  7  3  1  0
 10  1  1  0
 11  5  1  0
M  END
$$$$

     RDKit          3D

 20 19  0  0  0  0  0  0  0  0999 V2000
   37.2010   41.2620   27.0560 N   0  0  0  0  0  0  0  0  0  0  0  0
   35.4620   42.5090   26.2320 O   0  0  0  0  0  0  0  0  0  0  0  0
   42.2190   43.2490   28.7820 N   0  0  0  0  0  0  0  0  0  0  0  0
   37.3250   39.8150   28.9210 C   0  0  0  0  0  0  0  0  0  0  0  0
   40.4350   41.8520   29.2370 C   0  0  0  0  0  0  0  0  0  0  0  0
   40.7730   40.8990   30.3080 O   0  0  0  0  0  0  0  0  0  0  0  0
   40.8350   43.2640   24.9450 N   0  0  0  0  0  0  0  0  0  0  0  0
   37.5670   41.5260   29.4760 C   0  0  0  0  0  0  0  0  0  0  0  0
   38.5910   39.2000   28.7540 O   0  0  0  0  0  0  0  0  0  0  0  0
   37.0830   41.9960   28.3870 N   0  0  0  0  0  0  0  0  0  0  0  0
   36.1930   41.5100   26.0270 C   0  0  0  0  0  0  0  0  0  0  0  0
   40.4590   42.9810   26.9090 C   0  0  0  0  0  0  0  0  0  0  0  0
   38.4560   38.3090   29.8450 C   0  0  0  0  0  0  0  0  0  0  0  0
   38.1840   41.2040   24.3020 C   0  0  0  0  0  0  0  0  0  0  0  0
   36.7520   40.9220   24.7060 C   0  0  0  0  0  0  0  0  0  0  0  0
   40.2620   41.9460   24.8980 C   0  0  0  0  0  0  0  0  0  0  0  0
   39.0620   41.7500   25.3260 C   0  0  0  0  0  0  0  0  0  0  0  0
   41.4240   42.1770   28.0350 C   0  0  0  0  0  0  0  0  0  0  0  0
   38.3370   42.0960   30.7760 C   0  0  0  0  0  0  0  0  0  0  0  0
   39.5280   43.2530   30.0400 S   0  0  0  0  0  0  0  0  0  0  0  0
  1 10  1  0
  5 20  1  0
  5  6  2  0
  8  4  1  0
  8 19  1  0
  9  4  1  0
  9 13  1  0
 10  8  1  0
 11  2  2  0
 11  1  1  0
 14 15  2  3
 14 17  1  0
 15 11  1  0
 16  7  1  0
 16 17  1  0
 18 12  1  0
 18  3  1  0
 18  5  1  0
 20 19  1  0
M  END
$$$$

     RDKit          3D

 10  9  0  0  0  0  0  0  0  0999 V2000
   38.5160   42.5250   30.2470 O   0  0  0  0  0  0  0  0  0  0  0  0
   41.1650   41.3220   26.9620 O   0  0  0  0  0  0  0  0  0  0  0  0
   42.4810   42.6820   29.3320 O   0  0  0  0  0  0  0  0  0  0  0  0
   41.2920   42.3650   29.3030 C   0  0  0  0  0  0  0  0  0  0  0  0
   40.5870   42.1170   27.9710 C   0  0  0  0  0  0  0  0  0  0  0  0
   39.2070   41.4470   28.1790 C   0  0  0  0  0  0  0  0  0  0  0  0
   40.7540   42.1640   30.4450 O   0  0  0  0  0  0  0  0  0  0  0  0
   38.5080   42.5700   28.9220 C   0  0  0  0  0  0  0  0  0  0  0  0
   38.5850   40.9890   26.9530 O   0  0  0  0  0  0  0  0  0  0  0  0
   38.1110   43.4930   28.1680 O   0  0  0  0  0  0  0  0  0  0  0  0
  4  3  2  0
  4  7  1  0
  5  2  1  0
  5  6  1  0
  5  4  1  0
  6  9  1  0
  6  8  1  0
  8  1  1  0
 10  8  2  0
M  END
$$$$

     RDKit          3D

 11 10  0  0  0  0  0  0  0  0999 V2000
   37.2610   41.5100   28.4980 C   0  0  0  0  0  0  0  0  0  0  0  0
   37.1020   41.4880   26.9300 C   0  0  0  0  0  0  0  0  0  0  0  0
   37.3890   42.9860   28.7310 C   0  0  0  0  0  0  0  0  0  0  0  0
   37.2700   40.4450   26.2650 O   0  0  0  0  0  0  0  0  0  0  0  0
   39.6050   41.3050   29.3030 N   0  0  0  0  0  0  0  0  0  0  0  0
   38.2530   40.7400   28.9280 C   0  0  0  0  0  0  0  0  0  0  0  0
   40.3330   40.0320   29.5660 N   0  0  0  0  0  0  0  0  0  0  0  0
   41.6750   41.9190   30.1490 C   0  0  0  0  0  0  0  0  0  0  0  0
   41.5780   42.0250   28.4240 C   0  0  0  0  0  0  0  0  0  0  0  0
   40.0690   41.8790   28.0950 C   0  0  0  0  0  0  0  0  0  0  0  0
   39.5930   42.4440   27.1230 O   0  0  0  0  0  0  0  0  0  0  0  0
  1  3  1  0
  1  6  1  0
  2  1  1  0
  4  2  2  0
  5  7  1  0
  6  5  1  0
  9  8  1  0
 10  9  1  0
 10  5  1  0
 11 10  2  0
M  END
$$$$

     RDKit          3D

 14 13  0  0  0  0  0  0  0  0999 V2000
   41.4740   41.3700   28.9660 C   0  0  0  0  0  0  0  0  0  0  0  0
   42.3900   42.4130   28.3180 C   0  0  0  0  0  0  0  0  0  0  0  0
   36.9620   41.2610   25.5790 C   0  0  0  0  0  0  0  0  0  0  0  0
   39.0190   41.1680   30.0540 O   0  0  0  0  0  0  0  0  0  0  0  0
   36.1820   40.3520   25.2970 O   0  0  0  0  0  0  0  0  0  0  0  0
   42.1380   42.2810   26.8850 N   0  0  0  0  0  0  0  0  0  0  0  0
   36.9390   42.2790   24.8640 O   0  0  0  0  0  0  0  0  0  0  0  0
   37.6490   41.4750   28.1160 C   0  0  0  0  0  0  0  0  0  0  0  0
   37.9530   40.9950   26.6960 C   0  0  0  0  0  0  0  0  0  0  0  0
   40.2440   41.2110   28.0890 C   0  0  0  0  0  0  0  0  0  0  0  0
   43.8980   42.2400   28.6270 C   0  0  0  0  0  0  0  0  0  0  0  0
   37.2240   42.9350   28.1730 C   0  0  0  0  0  0  0  0  0  0  0  0
   38.9660   41.2870   28.8700 C   0  0  0  0  0  0  0  0  0  0  0  0
   42.0670   43.5370   26.3470 O   0  0  0  0  0  0  0  0  0  0  0  0
  2 11  1  0
  2  1  1  0
  3  9  1  0
  5  3  1  0
  6  2  1  0
  7  3  2  0
  8 12  1  0
  8 13  1  0
  9  8  1  0
 10 13  1  0
 10  1  1  0
 13  4  2  0
 14  6  1  0
M  END
$$$$
