
     RDKit          3D

  7  7  0  0  0  0  0  0  0  0999 V2000
   43.8250   36.7130   32.0890 C   0  0  0  0  0  0  0  0  0  0  0  0
   44.8370   35.8560   31.6280 C   0  0  0  0  0  0  0  0  0  0  0  0
   46.0260   36.4550   31.6710 N   0  0  0  0  0  0  0  0  0  0  0  0
   42.3110   36.3210   32.4310 C   0  0  0  0  0  0  0  0  0  0  0  0
   45.8280   37.7970   31.9370 C   0  0  0  0  0  0  0  0  0  0  0  0
   42.1600   34.8830   32.7110 O   0  0  0  0  0  0  0  0  0  0  0  0
   44.4460   37.9770   32.2290 C   0  0  0  0  0  0  0  0  0  0  0  0
  1  7  1  0
  1  4  1  0
  2  3  1  0
  2  1  2  0
  3  5  2  0
  4  6  1  0
  5  7  1  0
M  END
$$$$

     RDKit          3D

  7  6  0  0  0  0  0  0  0  0999 V2000
   41.9660   36.1150   28.3750 C   0  0  0  0  0  0  0  0  0  0  0  0
   42.7170   37.9990   30.8950 C   0  0  0  0  0  0  0  0  0  0  0  0
   44.9310   36.9500   30.5700 C   0  0  0  0  0  0  0  0  0  0  0  0
   41.5930   38.3390   30.2880 O   0  0  0  0  0  0  0  0  0  0  0  0
   44.7410   35.6980   31.5590 C   0  0  0  0  0  0  0  0  0  0  0  0
   43.1880   36.0000   29.1820 N   0  0  0  0  0  0  0  0  0  0  0  0
   43.5790   37.2320   29.8870 C   0  0  0  0  0  0  0  0  0  0  0  0
  1  6  1  0
  3  5  1  0
  4  2  1  0
  6  7  1  0
  7  3  1  0
  7  2  1  0
M  END
$$$$

     RDKit          3D

 12 13  0  0  0  0  0  0  0  0999 V2000
   45.1880   38.2750   31.8070 C   0  0  0  0  0  0  0  0  0  0  0  0
   44.6520   36.8220   32.0040 C   0  0  0  0  0  0  0  0  0  0  0  0
   43.0130   38.7360   30.5560 C   0  0  0  0  0  0  0  0  0  0  0  0
   42.5310   35.5150   32.1600 N   0  0  0  0  0  0  0  0  0  0  0  0
   42.4590   37.2710   30.8020 C   0  0  0  0  0  0  0  0  0  0  0  0
   43.3110   37.5560   29.5450 C   0  0  0  0  0  0  0  0  0  0  0  0
   42.1270   35.1780   33.4210 C   0  0  0  0  0  0  0  0  0  0  0  0
   43.0800   36.8590   32.0570 C   0  0  0  0  0  0  0  0  0  0  0  0
   44.4170   39.2660   31.0530 O   0  0  0  0  0  0  0  0  0  0  0  0
   41.0510   34.1650   33.3900 C   0  0  0  0  0  0  0  0  0  0  0  0
   42.5480   35.6410   34.4780 O   0  0  0  0  0  0  0  0  0  0  0  0
   42.0260   39.8490   29.8950 C   0  0  0  0  0  0  0  0  0  0  0  0
  1  2  1  0
  2  8  1  0
  3 12  1  0
  3  5  1  0
  3  9  1  0
  4  7  1  0
  5  6  1  0
  5  8  1  0
  6  3  1  0
  7 11  2  0
  8  4  1  0
  9  1  1  0
 10  7  1  0
M  END
$$$$

     RDKit          3D

 14 14  0  0  0  0  0  0  0  0999 V2000
   43.8420   36.5520   31.9840 C   0  0  0  0  0  0  0  0  0  0  0  0
   46.3460   35.9710   33.2650 C   0  0  0  0  0  0  0  0  0  0  0  0
   42.5250   36.8390   31.4940 N   0  0  0  0  0  0  0  0  0  0  0  0
   41.5020   40.5400   28.6860 O   0  0  0  0  0  0  0  0  0  0  0  0
   42.6030   37.3040   29.9790 S   0  0  0  0  0  0  0  0  0  0  0  0
   41.6010   39.1640   28.5250 C   0  0  0  0  0  0  0  0  0  0  0  0
   42.0760   36.2290   29.0980 O   0  0  0  0  0  0  0  0  0  0  0  0
   45.3340   36.5450   33.7270 N   0  0  0  0  0  0  0  0  0  0  0  0
   44.9310   36.1530   31.0140 C   0  0  0  0  0  0  0  0  0  0  0  0
   46.2770   35.7880   31.7040 C   0  0  0  0  0  0  0  0  0  0  0  0
   43.1940   36.6970   34.4060 N   0  0  0  0  0  0  0  0  0  0  0  0
   43.8760   37.7150   29.4100 O   0  0  0  0  0  0  0  0  0  0  0  0
   41.6060   38.7270   30.0050 C   0  0  0  0  0  0  0  0  0  0  0  0
   44.0740   36.6110   33.3730 C   0  0  0  0  0  0  0  0  0  0  0  0
  1 14  2  0
  2  8  1  0
  3  1  1  0
  5 13  1  0
  5  3  1  0
  6  4  1  0
  6 13  1  0
  7  5  2  0
  9 10  1  0
  9  1  1  0
 10  2  1  0
 12  5  2  0
 14  8  1  0
 14 11  1  0
M  END
$$$$

     RDKit          3D

 15 15  0  0  0  0  0  0  0  0999 V2000
   43.1760   36.2610   31.5270 C   0  0  0  0  0  0  0  0  0  0  0  0
   44.9620   37.5260   33.0690 O   0  0  0  0  0  0  0  0  0  0  0  0
   41.7330   35.9340   32.1430 C   0  0  0  0  0  0  0  0  0  0  0  0
   41.1190   33.7910   33.4990 C   0  0  0  0  0  0  0  0  0  0  0  0
   41.7800   39.3260   28.8620 C   0  0  0  0  0  0  0  0  0  0  0  0
   43.1000   38.0960   30.2760 N   0  0  0  0  0  0  0  0  0  0  0  0
   42.9510   36.7460   30.1450 C   0  0  0  0  0  0  0  0  0  0  0  0
   41.9410   38.9860   30.3330 C   0  0  0  0  0  0  0  0  0  0  0  0
   44.4570   35.3630   33.2620 C   0  0  0  0  0  0  0  0  0  0  0  0
   45.8500   35.3650   32.5810 C   0  0  0  0  0  0  0  0  0  0  0  0
   43.8550   36.6690   32.8300 C   0  0  0  0  0  0  0  0  0  0  0  0
   42.5910   36.1730   29.1740 O   0  0  0  0  0  0  0  0  0  0  0  0
   43.3240   34.4860   33.1890 N   0  0  0  0  0  0  0  0  0  0  0  0
   44.3950   38.7270   29.8360 C   0  0  0  0  0  0  0  0  0  0  0  0
   41.9220   35.0670   33.4010 C   0  0  0  0  0  0  0  0  0  0  0  0
  1  7  1  0
  1  3  1  0
  1 11  1  0
  3 15  1  0
  5  8  1  0
  6  8  1  0
  7  6  1  0
  9 10  1  0
 11  2  1  0
 11  9  1  0
 12  7  2  0
 13  9  1  0
 13 15  1  0
 14  6  1  0
 15  4  1  0
M  END
$$$$

     RDKit          3D

 10 10  0  0  0  0  0  0  0  0999 V2000
   42.3440   36.1610   29.5010 O   0  0  0  0  0  0  0  0  0  0  0  0
   42.8530   35.0900   32.6650 N   0  0  0  0  0  0  0  0  0  0  0  0
   42.7600   38.7570   29.1080 C   0  0  0  0  0  0  0  0  0  0  0  0
   41.9580   34.2420   33.4740 C   0  0  0  0  0  0  0  0  0  0  0  0
   42.1370   36.4220   32.0710 C   0  0  0  0  0  0  0  0  0  0  0  0
   43.5270   38.2230   30.4770 C   0  0  0  0  0  0  0  0  0  0  0  0
   42.7800   36.9110   30.6580 C   0  0  0  0  0  0  0  0  0  0  0  0
   42.4510   40.0860   29.3560 O   0  0  0  0  0  0  0  0  0  0  0  0
   44.2460   38.1500   31.9060 O   0  0  0  0  0  0  0  0  0  0  0  0
   41.8290   37.7350   31.4370 C   0  0  0  0  0  0  0  0  0  0  0  0
  2  4  1  0
  3  8  1  0
  3  6  1  0
  5  2  1  0
  6  7  1  0
  6  9  1  0
  7  1  1  0
  7 10  1  0
  7  5  1  0
 10  5  1  0
M  END
$$$$

     RDKit          3D

 13 13  0  0  0  0  0  0  0  0999 V2000
   43.0500   35.2800   32.7890 N   0  0  0  0  0  0  0  0  0  0  0  0
   43.7590   37.5820   30.0160 C   0  0  0  0  0  0  0  0  0  0  0  0
   45.4070   38.7470   32.5370 N   0  0  0  0  0  0  0  0  0  0  0  0
   46.8200   38.9870   30.7400 O   0  0  0  0  0  0  0  0  0  0  0  0
   41.6810   38.8130   29.8210 O   0  0  0  0  0  0  0  0  0  0  0  0
   45.1760   37.2700   30.6200 C   0  0  0  0  0  0  0  0  0  0  0  0
   44.9360   36.1650   31.6200 O   0  0  0  0  0  0  0  0  0  0  0  0
   44.0230   34.7030   33.7560 C   0  0  0  0  0  0  0  0  0  0  0  0
   45.8380   38.4750   31.2900 C   0  0  0  0  0  0  0  0  0  0  0  0
   43.0520   38.9700   29.9160 C   0  0  0  0  0  0  0  0  0  0  0  0
   43.5500   36.4040   31.9680 C   0  0  0  0  0  0  0  0  0  0  0  0
   41.5690   35.1260   32.5790 O   0  0  0  0  0  0  0  0  0  0  0  0
   42.8440   36.5250   30.6180 C   0  0  0  0  0  0  0  0  0  0  0  0
  1  8  1  0
  2 10  1  0
  2 13  1  0
  2  6  1  0
  4  9  2  0
  5 10  1  0
  6  9  1  0
  6  7  1  0
  7 11  1  0
  9  3  1  0
 11  1  1  0
 12  1  1  0
 13 11  1  0
M  END
$$$$

     RDKit          3D

 14 14  0  0  0  0  0  0  0  0999 V2000
   45.4830   39.2940   31.1330 C   0  0  0  0  0  0  0  0  0  0  0  0
   46.3470   37.0320   30.3170 C   0  0  0  0  0  0  0  0  0  0  0  0
   43.0220   36.4150   28.7810 O   0  0  0  0  0  0  0  0  0  0  0  0
   42.5520   36.6840   30.9800 C   0  0  0  0  0  0  0  0  0  0  0  0
   42.0520   35.3720   30.9120 O   0  0  0  0  0  0  0  0  0  0  0  0
   44.4740   38.1360   31.6320 C   0  0  0  0  0  0  0  0  0  0  0  0
   46.7130   36.0160   29.5940 O   0  0  0  0  0  0  0  0  0  0  0  0
   44.6660   35.4240   33.4200 C   0  0  0  0  0  0  0  0  0  0  0  0
   43.5280   36.3680   33.2780 C   0  0  0  0  0  0  0  0  0  0  0  0
   42.3300   35.5700   33.6960 C   0  0  0  0  0  0  0  0  0  0  0  0
   45.0180   36.9520   30.9900 C   0  0  0  0  0  0  0  0  0  0  0  0
   43.1990   37.3180   32.1610 C   0  0  0  0  0  0  0  0  0  0  0  0
   43.7160   36.5450   30.0620 C   0  0  0  0  0  0  0  0  0  0  0  0
   47.1970   37.8530   30.7180 O   0  0  0  0  0  0  0  0  0  0  0  0
  2 14  1  0
  4  5  1  0
  4 12  1  0
  6  1  1  0
  6 12  1  0
  7  2  2  0
  9  8  1  0
  9 10  1  0
 11  2  1  0
 11  6  1  0
 12  9  1  0
 13  3  1  0
 13  4  1  0
 13 11  1  0
M  END
$$$$

     RDKit          3D

 17 17  0  0  0  0  0  0  0  0999 V2000
   43.9820   35.0420   32.9450 C   0  0  0  0  0  0  0  0  0  0  0  0
   44.9540   35.7250   32.5410 N   0  0  0  0  0  0  0  0  0  0  0  0
   42.1050   36.2920   27.7790 Cl  0  0  0  0  0  0  0  0  0  0  0  0
   42.3350   37.5370   28.9410 C   0  0  0  0  0  0  0  0  0  0  0  0
   40.4980   39.1320   28.5340 N   0  0  0  0  0  0  0  0  0  0  0  0
   44.4960   36.9440   29.7910 O   0  0  0  0  0  0  0  0  0  0  0  0
   41.6620   35.3960   31.7630 C   0  0  0  0  0  0  0  0  0  0  0  0
   42.5830   36.6010   31.3600 O   0  0  0  0  0  0  0  0  0  0  0  0
   41.7470   38.7820   29.0730 C   0  0  0  0  0  0  0  0  0  0  0  0
   40.9880   34.9060   33.1090 C   0  0  0  0  0  0  0  0  0  0  0  0
   43.3950   39.1140   30.8660 C   0  0  0  0  0  0  0  0  0  0  0  0
   41.8950   34.5650   34.2720 N   0  0  0  0  0  0  0  0  0  0  0  0
   39.8980   40.3860   29.1060 C   0  0  0  0  0  0  0  0  0  0  0  0
   43.2810   37.4600   30.2850 S   0  0  0  0  0  0  0  0  0  0  0  0
   43.1980   35.3340   34.2200 C   0  0  0  0  0  0  0  0  0  0  0  0
   42.5800   39.7160   29.7880 C   0  0  0  0  0  0  0  0  0  0  0  0
   39.9090   38.6570   27.2790 C   0  0  0  0  0  0  0  0  0  0  0  0
  1 15  1  0
  2  1  2  0
  4  3  1  0
  4  9  1  0
  4 14  1  0
  5 13  1  0
  7 10  1  0
  8  7  1  0
  9  5  1  0
  9 16  1  0
 10 12  1  0
 14  6  1  0
 14 11  1  0
 14  8  1  0
 15 12  1  0
 16 11  1  0
 17  5  1  0
M  END
$$$$

     RDKit          3D

  4  3  0  0  0  0  0  0  0  0999 V2000
   41.7120   34.6930   32.3110 C   0  0  0  0  0  0  0  0  0  0  0  0
   43.4380   36.3870   31.9510 C   0  0  0  0  0  0  0  0  0  0  0  0
   42.3870   34.3570   33.5330 N   0  0  0  0  0  0  0  0  0  0  0  0
   42.0690   36.1380   32.0190 C   0  0  0  0  0  0  0  0  0  0  0  0
  1  3  1  0
  2  4  1  0
  4  1  1  0
M  END
$$$$

     RDKit          3D

  5  4  0  0  0  0  0  0  0  0999 V2000
   44.2370   36.5170   33.2430 C   0  0  0  0  0  0  0  0  0  0  0  0
   42.9960   34.5940   33.7530 N   0  0  0  0  0  0  0  0  0  0  0  0
   42.3600   37.3800   31.4450 O   0  0  0  0  0  0  0  0  0  0  0  0
   42.0440   36.1510   32.0610 C   0  0  0  0  0  0  0  0  0  0  0  0
   43.0870   35.7780   33.0280 C   0  0  0  0  0  0  0  0  0  0  0  0
  3  4  1  0
  4  5  1  0
  5  1  1  0
  5  2  1  0
M  END
$$$$

     RDKit          3D

 12 12  0  0  0  0  0  0  0  0999 V2000
   42.7240   36.1500   30.6490 C   0  0  0  0  0  0  0  0  0  0  0  0
   45.1400   37.8470   32.3710 N   0  0  0  0  0  0  0  0  0  0  0  0
   43.5690   36.7660   33.9260 O   0  0  0  0  0  0  0  0  0  0  0  0
   44.4960   36.2370   32.9300 S   0  0  0  0  0  0  0  0  0  0  0  0
   42.7960   37.6460   30.7230 C   0  0  0  0  0  0  0  0  0  0  0  0
   44.2020   39.4900   31.2760 O   0  0  0  0  0  0  0  0  0  0  0  0
   44.0450   38.3170   31.4120 C   0  0  0  0  0  0  0  0  0  0  0  0
   42.0210   35.4240   29.9800 O   0  0  0  0  0  0  0  0  0  0  0  0
   45.8050   35.1320   33.3650 C   0  0  0  0  0  0  0  0  0  0  0  0
   41.7720   38.5000   30.2170 C   0  0  0  0  0  0  0  0  0  0  0  0
   45.4470   38.7280   33.5000 C   0  0  0  0  0  0  0  0  0  0  0  0
   43.7450   35.4170   31.3900 C   0  0  0  0  0  0  0  0  0  0  0  0
  1  5  1  0
  1 12  1  0
  2  4  1  0
  2 11  1  0
  4  9  1  0
  4  3  1  0
  5 10  1  0
  5  7  1  0
  6  7  2  0
  7  2  1  0
  8  1  2  0
 12  4  1  0
M  END
$$$$

     RDKit          3D

 14 14  0  0  0  0  0  0  0  0999 V2000
   41.7280   34.9400   32.5520 C   0  0  0  0  0  0  0  0  0  0  0  0
   43.2350   36.6000   31.7930 C   0  0  0  0  0  0  0  0  0  0  0  0
   44.9570   37.4740   30.1950 C   0  0  0  0  0  0  0  0  0  0  0  0
   42.5150   38.4010   30.1830 C   0  0  0  0  0  0  0  0  0  0  0  0
   41.6370   33.9900   33.7930 C   0  0  0  0  0  0  0  0  0  0  0  0
   43.9350   38.3820   29.7090 C   0  0  0  0  0  0  0  0  0  0  0  0
   41.4520   39.2520   29.7630 C   0  0  0  0  0  0  0  0  0  0  0  0
   44.5980   36.4230   31.2230 C   0  0  0  0  0  0  0  0  0  0  0  0
   46.3500   37.2860   29.8280 N   0  0  0  0  0  0  0  0  0  0  0  0
   42.7760   35.7330   32.8300 C   0  0  0  0  0  0  0  0  0  0  0  0
   42.9400   34.0580   34.2860 N   0  0  0  0  0  0  0  0  0  0  0  0
   42.2550   37.5670   31.2900 C   0  0  0  0  0  0  0  0  0  0  0  0
   46.8810   36.1440   29.9270 O   0  0  0  0  0  0  0  0  0  0  0  0
   46.8370   38.1800   29.0530 O   0  0  0  0  0  0  0  0  0  0  0  0
  1 10  1  0
  1  5  1  0
  2 10  1  0
  3  8  1  0
  4 12  2  0
  5 11  1  0
  6  4  1  0
  6  3  2  0
  7  4  1  0
  8  2  2  0
  9 13  2  0
  9  3  1  0
 12  2  1  0
 14  9  2  0
M  END
$$$$

     RDKit          3D

 13 13  0  0  0  0  0  0  0  0999 V2000
   42.6360   36.2600   31.0840 N   0  0  0  0  0  0  0  0  0  0  0  0
   41.7080   40.9730   27.2860 C   0  0  0  0  0  0  0  0  0  0  0  0
   40.5790   40.1130   27.9080 C   0  0  0  0  0  0  0  0  0  0  0  0
   42.3180   34.4020   32.8130 C   0  0  0  0  0  0  0  0  0  0  0  0
   41.8750   34.1750   34.1600 N   0  0  0  0  0  0  0  0  0  0  0  0
   42.7540   35.7700   32.4290 C   0  0  0  0  0  0  0  0  0  0  0  0
   43.4960   36.5960   33.4380 C   0  0  0  0  0  0  0  0  0  0  0  0
   43.3150   40.3950   29.1250 C   0  0  0  0  0  0  0  0  0  0  0  0
   43.2770   37.4930   30.5020 C   0  0  0  0  0  0  0  0  0  0  0  0
   40.8660   39.5190   29.2400 N   0  0  0  0  0  0  0  0  0  0  0  0
   42.6270   38.7870   30.9820 C   0  0  0  0  0  0  0  0  0  0  0  0
   42.2040   39.8600   29.9410 C   0  0  0  0  0  0  0  0  0  0  0  0
   42.7070   41.5550   28.3140 C   0  0  0  0  0  0  0  0  0  0  0  0
  1  6  2  3
  2  3  1  0
  2 13  1  0
  3 10  2  0
  4  5  1  0
  6  4  1  0
  6  7  1  0
  8 12  1  0
  9 11  1  0
  9  1  1  0
 10 12  1  0
 12 11  1  0
 13  8  1  0
M  END
$$$$

     RDKit          3D

 14 13  0  0  0  0  0  0  0  0999 V2000
   45.0540   38.5470   31.5440 O   0  0  0  0  0  0  0  0  0  0  0  0
   42.6770   36.2820   33.9370 O   0  0  0  0  0  0  0  0  0  0  0  0
   45.6050   35.9980   33.4940 O   0  0  0  0  0  0  0  0  0  0  0  0
   43.8820   36.5610   31.4890 C   0  0  0  0  0  0  0  0  0  0  0  0
   42.4430   33.8980   33.5530 N   0  0  0  0  0  0  0  0  0  0  0  0
   42.9390   36.3070   30.5080 O   0  0  0  0  0  0  0  0  0  0  0  0
   46.4820   38.8580   33.5860 C   0  0  0  0  0  0  0  0  0  0  0  0
   46.1460   36.7290   32.5550 C   0  0  0  0  0  0  0  0  0  0  0  0
   45.6190   38.4510   34.4630 O   0  0  0  0  0  0  0  0  0  0  0  0
   41.7000   35.9170   32.0350 C   0  0  0  0  0  0  0  0  0  0  0  0
   42.2510   35.3070   33.0360 C   0  0  0  0  0  0  0  0  0  0  0  0
   46.1240   38.0590   32.2970 C   0  0  0  0  0  0  0  0  0  0  0  0
   44.9870   37.3130   30.7260 C   0  0  0  0  0  0  0  0  0  0  0  0
   43.5750   37.0340   32.9470 C   0  0  0  0  0  0  0  0  0  0  0  0
  1 12  1  0
  4  6  1  0
  4 14  1  0
  7  9  1  0
  8  3  1  0
 10 11  2  0
 11  5  1  0
 11  2  1  0
 12  8  1  0
 12  7  1  0
 13  4  1  0
 13  1  1  0
 14  2  1  0
M  END
$$$$

     RDKit          3D

  6  5  0  0  0  0  0  0  0  0999 V2000
   42.5040   37.2080   30.6120 C   0  0  0  0  0  0  0  0  0  0  0  0
   42.2320   34.4480   33.0270 N   0  0  0  0  0  0  0  0  0  0  0  0
   42.2700   36.8220   29.4700 O   0  0  0  0  0  0  0  0  0  0  0  0
   41.7620   35.6500   32.4010 C   0  0  0  0  0  0  0  0  0  0  0  0
   42.9210   36.2380   31.6430 C   0  0  0  0  0  0  0  0  0  0  0  0
   42.7950   38.4150   30.8540 O   0  0  0  0  0  0  0  0  0  0  0  0
  1  6  1  0
  1  5  1  0
  3  1  2  0
  4  2  1  0
  5  4  1  0
M  END
$$$$

     RDKit          3D

 18 18  0  0  0  0  0  0  0  0999 V2000
   42.7110   36.8880   29.0050 O   0  0  0  0  0  0  0  0  0  0  0  0
   44.7270   36.8520   35.9790 N   0  0  0  0  0  0  0  0  0  0  0  0
   41.1600   39.5780   30.3840 C   0  0  0  0  0  0  0  0  0  0  0  0
   41.8210   35.9720   30.9340 O   0  0  0  0  0  0  0  0  0  0  0  0
   41.8530   36.5060   32.1630 C   0  0  0  0  0  0  0  0  0  0  0  0
   43.9260   37.0150   31.3850 C   0  0  0  0  0  0  0  0  0  0  0  0
   45.7940   36.2220   33.7720 C   0  0  0  0  0  0  0  0  0  0  0  0
   41.4680   37.1080   30.7020 C   0  0  0  0  0  0  0  0  0  0  0  0
   41.2640   40.0010   28.1540 O   0  0  0  0  0  0  0  0  0  0  0  0
   42.1090   38.4600   30.7930 C   0  0  0  0  0  0  0  0  0  0  0  0
   44.8100   35.2600   33.9590 N   0  0  0  0  0  0  0  0  0  0  0  0
   45.0020   36.2090   31.0160 O   0  0  0  0  0  0  0  0  0  0  0  0
   41.4850   37.3000   29.1590 O   0  0  0  0  0  0  0  0  0  0  0  0
   43.2320   36.5710   32.5740 C   0  0  0  0  0  0  0  0  0  0  0  0
   45.7640   37.1570   34.9870 C   0  0  0  0  0  0  0  0  0  0  0  0
   42.7260   34.5370   33.5930 O   0  0  0  0  0  0  0  0  0  0  0  0
   43.5620   35.3670   33.4240 C   0  0  0  0  0  0  0  0  0  0  0  0
   41.1200   40.3530   29.2160 C   0  0  0  0  0  0  0  0  0  0  0  0
  1 13  1  0
  3 10  1  0
  4  5  1  0
  5 14  1  0
  7 11  1  0
  7 15  1  0
  8 10  1  0
  8  4  1  0
  8  5  1  0
  9 18  2  0
 12  6  1  0
 13  8  1  0
 14  6  1  0
 14 17  1  0
 15  2  1  0
 17 16  2  0
 17 11  1  0
 18  3  1  0
M  END
$$$$

     RDKit          3D

 11 11  0  0  0  0  0  0  0  0999 V2000
   41.6730   34.0800   32.8740 O   0  0  0  0  0  0  0  0  0  0  0  0
   45.0620   37.5070   31.4850 C   0  0  0  0  0  0  0  0  0  0  0  0
   43.0790   36.0970   31.6220 C   0  0  0  0  0  0  0  0  0  0  0  0
   43.6350   37.1220   29.4570 C   0  0  0  0  0  0  0  0  0  0  0  0
   43.9170   36.9290   30.8650 C   0  0  0  0  0  0  0  0  0  0  0  0
   43.3970   35.8230   32.9540 C   0  0  0  0  0  0  0  0  0  0  0  0
   44.5270   36.3860   33.5360 C   0  0  0  0  0  0  0  0  0  0  0  0
   42.5020   34.8510   33.7550 C   0  0  0  0  0  0  0  0  0  0  0  0
   44.6340   37.4260   28.7390 O   0  0  0  0  0  0  0  0  0  0  0  0
   45.3360   37.2520   32.8100 C   0  0  0  0  0  0  0  0  0  0  0  0
   42.4510   37.0260   29.0640 O   0  0  0  0  0  0  0  0  0  0  0  0
  1  8  1  0
  2 10  1  0
  3  6  2  0
  4  5  1  0
  5  2  2  0
  5  3  1  0
  6  7  1  0
  6  8  1  0
  9  4  2  0
 10  7  2  0
 11  4  1  0
M  END
$$$$

     RDKit          3D

 24 26  0  0  0  0  0  0  0  0999 V2000
   42.5860   38.9730   31.0790 C   0  0  0  0  0  0  0  0  0  0  0  0
   40.8520   40.3670   27.9820 C   0  0  0  0  0  0  0  0  0  0  0  0
   44.9080   36.4550   34.4850 C   0  0  0  0  0  0  0  0  0  0  0  0
   44.9410   37.5690   34.2170 C   0  0  0  0  0  0  0  0  0  0  0  0
   43.9450   35.9740   33.7940 C   0  0  0  0  0  0  0  0  0  0  0  0
   42.2650   37.8820   30.3970 C   0  0  0  0  0  0  0  0  0  0  0  0
   40.3980   38.0840   28.1840 N   0  0  0  0  0  0  0  0  0  0  0  0
   41.7150   38.2060   28.8950 C   0  0  0  0  0  0  0  0  0  0  0  0
   41.0560   38.9900   25.9880 O   0  0  0  0  0  0  0  0  0  0  0  0
   40.3410   42.2040   29.6020 C   0  0  0  0  0  0  0  0  0  0  0  0
   40.7050   34.4170   33.3260 C   0  0  0  0  0  0  0  0  0  0  0  0
   39.7580   41.4110   28.3820 C   0  0  0  0  0  0  0  0  0  0  0  0
   42.6120   37.2580   28.0550 C   0  0  0  0  0  0  0  0  0  0  0  0
   42.2670   40.0720   30.2640 C   0  0  0  0  0  0  0  0  0  0  0  0
   43.7030   36.5840   32.5880 C   0  0  0  0  0  0  0  0  0  0  0  0
   42.9140   35.0660   34.1050 C   0  0  0  0  0  0  0  0  0  0  0  0
   42.1260   36.5980   30.8310 O   0  0  0  0  0  0  0  0  0  0  0  0
   40.1520   39.1920   27.2420 C   0  0  0  0  0  0  0  0  0  0  0  0
   41.4080   39.7070   29.2210 N   0  0  0  0  0  0  0  0  0  0  0  0
   44.4660   37.3720   31.9390 O   0  0  0  0  0  0  0  0  0  0  0  0
   42.4020   36.1590   32.1130 C   0  0  0  0  0  0  0  0  0  0  0  0
   38.4830   40.6860   28.4060 O   0  0  0  0  0  0  0  0  0  0  0  0
   42.1880   35.9370   28.1900 O   0  0  0  0  0  0  0  0  0  0  0  0
   41.9670   35.1180   33.1990 N   0  0  0  0  0  0  0  0  0  0  0  0
  2 12  1  0
  2 19  1  0
  4  3  1  0
  5 16  2  0
  5  3  1  0
  6 17  1  0
  6  1  1  0
  7  8  1  0
  8 13  1  0
  8 19  1  0
  8  6  1  0
 12 22  1  0
 12 10  1  0
 13 23  1  0
 14  1  1  0
 15  5  1  0
 18  9  1  0
 18  2  1  0
 18  7  1  0
 19 14  1  0
 20 15  2  0
 21 17  1  0
 21 15  1  0
 21 24  1  0
 24 11  1  0
 24 16  1  0
M  END
$$$$

     RDKit          3D

  5  4  0  0  0  0  0  0  0  0999 V2000
   41.4020   34.8210   33.1800 C   0  0  0  0  0  0  0  0  0  0  0  0
   42.8550   36.6550   32.7660 O   0  0  0  0  0  0  0  0  0  0  0  0
   42.7510   35.5120   33.1470 C   0  0  0  0  0  0  0  0  0  0  0  0
   41.4160   33.4150   33.1130 N   0  0  0  0  0  0  0  0  0  0  0  0
   43.8080   35.0070   33.6820 O   0  0  0  0  0  0  0  0  0  0  0  0
  2  3  2  0
  3  1  1  0
  3  5  1  0
  4  1  1  0
M  END
$$$$
