
     RDKit          3D

 15 15  0  0  0  0  0  0  0  0999 V2000
   41.2920   37.8460   31.9070 C   0  0  0  0  0  0  0  0  0  0  0  0
   39.6890   39.4060   29.6140 C   0  0  0  0  0  0  0  0  0  0  0  0
   38.9340   41.5470   28.5730 O   0  0  0  0  0  0  0  0  0  0  0  0
   43.2710   38.5360   30.6200 N   0  0  0  0  0  0  0  0  0  0  0  0
   40.1320   40.8170   29.3030 C   0  0  0  0  0  0  0  0  0  0  0  0
   42.4230   40.2190   29.3430 C   0  0  0  0  0  0  0  0  0  0  0  0
   42.6320   37.4120   32.8780 C   0  0  0  0  0  0  0  0  0  0  0  0
   40.3530   36.7550   31.6090 N   0  0  0  0  0  0  0  0  0  0  0  0
   40.7640   38.8180   30.6190 C   0  0  0  0  0  0  0  0  0  0  0  0
   44.4610   38.8570   31.3730 C   0  0  0  0  0  0  0  0  0  0  0  0
   44.9220   38.8490   33.1450 S   0  0  0  0  0  0  0  0  0  0  0  0
   41.9810   38.8220   29.7230 C   0  0  0  0  0  0  0  0  0  0  0  0
   41.2020   38.1740   28.4630 O   0  0  0  0  0  0  0  0  0  0  0  0
   41.7100   40.6530   27.2400 O   0  0  0  0  0  0  0  0  0  0  0  0
   41.3010   40.8590   28.3810 C   0  0  0  0  0  0  0  0  0  0  0  0
  1  7  1  0
  2  9  1  0
  4 10  1  0
  5  3  1  0
  5  2  1  0
  6 12  1  0
  8  1  1  0
  9  1  1  0
 10 11  1  0
 12 13  1  0
 12  9  1  0
 12  4  1  0
 14 15  2  0
 15  5  1  0
 15  6  1  0
M  END
$$$$

     RDKit          3D

 14 17  0  0  0  0  0  0  0  0999 V2000
   43.2390   40.1120   27.7660 O   0  0  0  0  0  0  0  0  0  0  0  0
   39.8690   40.0020   30.5550 O   0  0  0  0  0  0  0  0  0  0  0  0
   43.9490   39.6680   29.9950 C   0  0  0  0  0  0  0  0  0  0  0  0
   41.6500   38.4850   33.5920 C   0  0  0  0  0  0  0  0  0  0  0  0
   39.7110   42.2070   29.2410 O   0  0  0  0  0  0  0  0  0  0  0  0
   42.3710   39.7270   29.7890 C   0  0  0  0  0  0  0  0  0  0  0  0
   44.4990   38.9850   31.2600 C   0  0  0  0  0  0  0  0  0  0  0  0
   41.3170   39.0460   28.8470 C   0  0  0  0  0  0  0  0  0  0  0  0
   39.9870   39.4590   29.0620 C   0  0  0  0  0  0  0  0  0  0  0  0
   42.0610   40.5610   28.5950 C   0  0  0  0  0  0  0  0  0  0  0  0
   42.2590   37.4980   32.1910 C   0  0  0  0  0  0  0  0  0  0  0  0
   40.0780   40.8980   29.3600 C   0  0  0  0  0  0  0  0  0  0  0  0
   42.4320   39.1250   32.1510 S   0  0  0  0  0  0  0  0  0  0  0  0
   40.6430   37.9360   29.3300 O   0  0  0  0  0  0  0  0  0  0  0  0
  3  7  1  0
  5 12  2  0
  6  3  1  0
  7 13  1  0
  8  9  1  0
  8 14  1  0
  8  6  1  0
  9 14  1  0
  9 12  1  0
  9  2  1  0
 10  1  1  0
 10  8  1  0
 10  6  1  0
 11  4  1  0
 12  2  1  0
 13 11  1  0
 13  4  1  0
M  END
$$$$

     RDKit          3D

  6  6  0  0  0  0  0  0  0  0999 V2000
   41.8560   38.6490   31.2320 C   0  0  0  0  0  0  0  0  0  0  0  0
   41.1250   37.7620   32.1500 N   0  0  0  0  0  0  0  0  0  0  0  0
   42.2080   36.9350   32.7320 C   0  0  0  0  0  0  0  0  0  0  0  0
   43.2650   37.8300   33.2420 N   0  0  0  0  0  0  0  0  0  0  0  0
   40.2260   36.9300   31.3340 C   0  0  0  0  0  0  0  0  0  0  0  0
   43.1170   38.9200   32.2320 C   0  0  0  0  0  0  0  0  0  0  0  0
  1  2  1  0
  1  6  1  0
  2  3  1  0
  3  4  1  0
  5  2  1  0
  6  4  1  0
M  END
$$$$

     RDKit          3D

 15 16  0  0  0  0  0  0  0  0999 V2000
   43.3010   39.1140   31.2370 C   0  0  0  0  0  0  0  0  0  0  0  0
   39.7950   39.9140   29.3660 N   0  0  0  0  0  0  0  0  0  0  0  0
   42.5600   38.5460   32.2920 C   0  0  0  0  0  0  0  0  0  0  0  0
   40.0370   39.9100   30.7160 N   0  0  0  0  0  0  0  0  0  0  0  0
   40.9080   37.9660   29.7850 N   0  0  0  0  0  0  0  0  0  0  0  0
   39.1270   40.8470   28.8910 C   0  0  0  0  0  0  0  0  0  0  0  0
   38.4470   41.9670   28.9330 C   0  0  0  0  0  0  0  0  0  0  0  0
   40.4030   38.5870   27.5660 O   0  0  0  0  0  0  0  0  0  0  0  0
   44.6950   39.4260   31.5280 C   0  0  0  0  0  0  0  0  0  0  0  0
   40.7180   38.7450   30.9410 C   0  0  0  0  0  0  0  0  0  0  0  0
   43.1330   38.3130   33.5030 C   0  0  0  0  0  0  0  0  0  0  0  0
   40.3360   38.7910   28.7610 C   0  0  0  0  0  0  0  0  0  0  0  0
   44.4140   38.6810   33.7340 N   0  0  0  0  0  0  0  0  0  0  0  0
   41.3160   38.2950   32.2100 N   0  0  0  0  0  0  0  0  0  0  0  0
   45.1770   39.2870   32.7780 C   0  0  0  0  0  0  0  0  0  0  0  0
  1  9  2  0
  1  3  1  0
  2  4  1  0
  3 11  2  0
  4 10  2  0
  5 10  2  0
  6  7  1  0
  6  2  1  0
  8 12  2  0
  9 15  1  0
 10 14  1  0
 11 13  1  0
 12  2  1  0
 12  5  1  0
 14  3  1  0
 15 13  2  0
M  END
$$$$

     RDKit          3D

 14 13  0  0  0  0  0  0  0  0999 V2000
   41.1880   38.2080   32.3810 C   0  0  0  0  0  0  0  0  0  0  0  0
   40.7550   39.1570   31.2650 C   0  0  0  0  0  0  0  0  0  0  0  0
   40.1640   40.0470   28.6700 C   0  0  0  0  0  0  0  0  0  0  0  0
   40.3800   40.3610   27.3300 O   0  0  0  0  0  0  0  0  0  0  0  0
   41.6350   40.3760   29.1270 C   0  0  0  0  0  0  0  0  0  0  0  0
   41.9930   41.5180   29.0910 O   0  0  0  0  0  0  0  0  0  0  0  0
   41.0610   36.8270   31.8450 N   0  0  0  0  0  0  0  0  0  0  0  0
   41.2380   35.7200   32.7880 C   0  0  0  0  0  0  0  0  0  0  0  0
   44.8590   40.3270   29.7040 O   0  0  0  0  0  0  0  0  0  0  0  0
   41.5400   37.8490   29.0060 O   0  0  0  0  0  0  0  0  0  0  0  0
   39.4880   41.1450   29.2180 O   0  0  0  0  0  0  0  0  0  0  0  0
   44.1280   39.9540   30.8620 C   0  0  0  0  0  0  0  0  0  0  0  0
   43.3180   38.7840   30.5230 O   0  0  0  0  0  0  0  0  0  0  0  0
   41.9690   38.8490   29.9610 P   0  0  0  0  0  0  0  0  0  0  0  0
  2  1  1  0
  3  5  1  0
  3 11  1  0
  4  3  1  0
  5 14  1  0
  6  5  2  0
  7  1  1  0
  7  8  1  0
  9 12  1  0
 13 12  1  0
 14 10  2  0
 14 13  1  0
 14  2  1  0
M  END
$$$$

     RDKit          3D

  4  3  0  0  0  0  0  0  0  0999 V2000
   41.6300   37.5080   31.3110 C   0  0  0  0  0  0  0  0  0  0  0  0
   40.4620   38.4470   31.2010 C   0  0  0  0  0  0  0  0  0  0  0  0
   41.2180   36.2230   32.0510 C   0  0  0  0  0  0  0  0  0  0  0  0
   42.6480   38.2040   32.0440 O   0  0  0  0  0  0  0  0  0  0  0  0
  1  4  1  0
  1  3  1  0
  2  1  1  0
M  END
$$$$

     RDKit          3D

 15 16  0  0  0  0  0  0  0  0999 V2000
   44.6540   39.2970   30.4830 S   0  0  0  0  0  0  0  0  0  0  0  0
   42.3430   38.0870   32.6080 C   0  0  0  0  0  0  0  0  0  0  0  0
   40.4750   38.8040   31.0020 C   0  0  0  0  0  0  0  0  0  0  0  0
   41.6980   41.5230   26.2290 O   0  0  0  0  0  0  0  0  0  0  0  0
   43.0330   38.8710   30.3070 C   0  0  0  0  0  0  0  0  0  0  0  0
   40.1580   39.7230   29.8500 C   0  0  0  0  0  0  0  0  0  0  0  0
   42.6640   37.9850   31.1830 N   0  0  0  0  0  0  0  0  0  0  0  0
   40.4550   38.2990   29.7150 O   0  0  0  0  0  0  0  0  0  0  0  0
   40.2120   41.1200   30.0070 C   0  0  0  0  0  0  0  0  0  0  0  0
   41.6860   40.1380   28.0550 C   0  0  0  0  0  0  0  0  0  0  0  0
   41.5130   36.8870   32.6880 N   0  0  0  0  0  0  0  0  0  0  0  0
   40.4810   40.5360   28.6780 N   0  0  0  0  0  0  0  0  0  0  0  0
   42.4810   40.6240   26.9150 C   0  0  0  0  0  0  0  0  0  0  0  0
   42.3660   39.3330   29.1140 N   0  0  0  0  0  0  0  0  0  0  0  0
   43.5890   38.2210   33.5090 C   0  0  0  0  0  0  0  0  0  0  0  0
  2 11  1  0
  2 15  1  0
  4 13  1  0
  5  1  2  0
  5  7  1  0
  6  9  1  0
  6  3  1  0
  7  2  1  0
  8  6  1  0
  8  3  1  0
 10 13  1  0
 10 12  1  0
 10 14  1  0
 12  6  1  0
 12  9  1  0
 14  5  1  0
M  END
$$$$

     RDKit          3D

 13 12  0  0  0  0  0  0  0  0999 V2000
   41.1440   41.2500   30.0620 C   0  0  0  0  0  0  0  0  0  0  0  0
   42.6620   38.0890   32.3510 O   0  0  0  0  0  0  0  0  0  0  0  0
   42.6770   39.8000   28.9590 O   0  0  0  0  0  0  0  0  0  0  0  0
   39.6870   41.3770   29.7350 C   0  0  0  0  0  0  0  0  0  0  0  0
   43.3210   40.4860   32.2330 O   0  0  0  0  0  0  0  0  0  0  0  0
   43.8880   39.1120   32.0280 P   0  0  0  0  0  0  0  0  0  0  0  0
   41.7590   39.8610   29.8110 C   0  0  0  0  0  0  0  0  0  0  0  0
   40.6040   37.0050   31.6960 C   0  0  0  0  0  0  0  0  0  0  0  0
   45.0810   38.7960   32.9420 O   0  0  0  0  0  0  0  0  0  0  0  0
   41.3510   38.7310   30.4350 N   0  0  0  0  0  0  0  0  0  0  0  0
   41.1460   35.9510   32.6610 C   0  0  0  0  0  0  0  0  0  0  0  0
   44.4290   38.8730   30.5870 O   0  0  0  0  0  0  0  0  0  0  0  0
   41.3290   38.3400   31.8220 C   0  0  0  0  0  0  0  0  0  0  0  0
  3  7  2  0
  4  1  1  0
  6  5  1  0
  6  2  1  0
  6  9  1  0
  7  1  1  0
  7 10  1  0
  8 11  1  0
 10 13  1  0
 12  6  2  0
 13  8  1  0
 13  2  1  0
M  END
$$$$

     RDKit          3D

  8  7  0  0  0  0  0  0  0  0999 V2000
   40.0080   41.1070   29.5110 C   0  0  0  0  0  0  0  0  0  0  0  0
   40.1810   37.6880   29.3890 O   0  0  0  0  0  0  0  0  0  0  0  0
   41.0330   38.7560   29.9620 C   0  0  0  0  0  0  0  0  0  0  0  0
   39.4630   40.4990   28.3350 O   0  0  0  0  0  0  0  0  0  0  0  0
   41.2900   37.4790   32.0060 O   0  0  0  0  0  0  0  0  0  0  0  0
   41.8930   38.0470   31.0600 C   0  0  0  0  0  0  0  0  0  0  0  0
   43.1470   38.0000   30.9560 O   0  0  0  0  0  0  0  0  0  0  0  0
   40.1800   39.9260   30.4730 C   0  0  0  0  0  0  0  0  0  0  0  0
  1  8  1  0
  3  2  1  0
  3  8  1  0
  3  6  1  0
  4  1  1  0
  6  5  1  0
  7  6  2  0
M  END
$$$$

     RDKit          3D

 18 18  0  0  0  0  0  0  0  0999 V2000
   42.1710   38.4340   33.7210 O   0  0  0  0  0  0  0  0  0  0  0  0
   42.9570   39.3470   29.5340 C   0  0  0  0  0  0  0  0  0  0  0  0
   39.3070   41.0570   29.0830 C   0  0  0  0  0  0  0  0  0  0  0  0
   39.7790   43.4280   28.9440 O   0  0  0  0  0  0  0  0  0  0  0  0
   41.9570   37.2060   32.9720 C   0  0  0  0  0  0  0  0  0  0  0  0
   40.7900   37.4640   31.9780 C   0  0  0  0  0  0  0  0  0  0  0  0
   44.6100   38.4020   27.7650 O   0  0  0  0  0  0  0  0  0  0  0  0
   42.1320   40.4970   29.0380 C   0  0  0  0  0  0  0  0  0  0  0  0
   43.6960   38.6370   28.4150 C   0  0  0  0  0  0  0  0  0  0  0  0
   41.2090   38.5210   31.0010 C   0  0  0  0  0  0  0  0  0  0  0  0
   40.6990   40.3060   29.3880 C   0  0  0  0  0  0  0  0  0  0  0  0
   43.7360   38.4630   31.6290 O   0  0  0  0  0  0  0  0  0  0  0  0
   42.7130   41.4710   28.4480 O   0  0  0  0  0  0  0  0  0  0  0  0
   40.3470   39.0310   29.9920 C   0  0  0  0  0  0  0  0  0  0  0  0
   39.8340   38.0160   29.0950 O   0  0  0  0  0  0  0  0  0  0  0  0
   38.9440   42.5060   29.0380 C   0  0  0  0  0  0  0  0  0  0  0  0
   37.7420   42.6360   29.2180 O   0  0  0  0  0  0  0  0  0  0  0  0
   42.6390   38.8420   30.8680 C   0  0  0  0  0  0  0  0  0  0  0  0
  2  9  1  0
  2 18  1  0
  4 16  2  0
  5  1  1  0
  6  5  1  0
  7  9  2  0
  8 11  1  0
  8  2  1  0
 10  6  1  0
 11  3  1  0
 11 14  1  0
 13  8  2  0
 14 15  1  0
 14 10  1  0
 16  3  1  0
 16 17  1  0
 18 10  1  0
 18 12  1  0
M  END
$$$$

     RDKit          3D

 15 15  0  0  0  0  0  0  0  0999 V2000
   38.4830   41.6550   28.9220 C   0  0  0  0  0  0  0  0  0  0  0  0
   42.9210   39.6840   29.5430 C   0  0  0  0  0  0  0  0  0  0  0  0
   41.1410   38.3880   30.3670 N   0  0  0  0  0  0  0  0  0  0  0  0
   42.0280   40.0110   30.7980 C   0  0  0  0  0  0  0  0  0  0  0  0
   39.7330   41.5190   29.5710 C   0  0  0  0  0  0  0  0  0  0  0  0
   40.8500   36.3920   32.0130 C   0  0  0  0  0  0  0  0  0  0  0  0
   43.0660   38.3220   33.6820 C   0  0  0  0  0  0  0  0  0  0  0  0
   42.7580   39.1100   28.4980 O   0  0  0  0  0  0  0  0  0  0  0  0
   42.6270   38.2090   32.2140 C   0  0  0  0  0  0  0  0  0  0  0  0
   44.4300   38.0410   33.7750 N   0  0  0  0  0  0  0  0  0  0  0  0
   40.1640   39.2030   29.4720 C   0  0  0  0  0  0  0  0  0  0  0  0
   43.0280   39.4830   31.6220 O   0  0  0  0  0  0  0  0  0  0  0  0
   40.6680   43.2400   29.2590 S   0  0  0  0  0  0  0  0  0  0  0  0
   41.1260   37.9190   31.8650 C   0  0  0  0  0  0  0  0  0  0  0  0
   40.5190   40.4930   28.9540 N   0  0  0  0  0  0  0  0  0  0  0  0
  3  4  1  0
  3 14  1  0
  4  2  1  0
  4 12  1  0
  5  1  1  0
  7 10  1  0
  8  2  2  0
  9  7  1  0
 11  3  1  0
 12  9  1  0
 13  5  1  0
 14  6  1  0
 14  9  1  0
 15 11  1  0
 15  5  1  0
M  END
$$$$

     RDKit          3D

 15 14  0  0  0  0  0  0  0  0999 V2000
   39.2370   41.8150   28.0740 N   0  0  0  0  0  0  0  0  0  0  0  0
   40.0650   40.1640   29.6280 C   0  0  0  0  0  0  0  0  0  0  0  0
   40.4870   37.4480   31.1930 C   0  0  0  0  0  0  0  0  0  0  0  0
   41.7340   38.2370   31.1310 N   0  0  0  0  0  0  0  0  0  0  0  0
   39.7580   41.6770   29.3980 C   0  0  0  0  0  0  0  0  0  0  0  0
   44.3730   39.4300   30.5440 N   0  0  0  0  0  0  0  0  0  0  0  0
   40.4490   36.3490   32.1490 C   0  0  0  0  0  0  0  0  0  0  0  0
   43.3600   39.5960   29.5400 C   0  0  0  0  0  0  0  0  0  0  0  0
   41.8890   42.4230   28.5190 O   0  0  0  0  0  0  0  0  0  0  0  0
   40.9860   42.5680   29.6110 C   0  0  0  0  0  0  0  0  0  0  0  0
   43.1670   40.0010   27.1560 O   0  0  0  0  0  0  0  0  0  0  0  0
   41.1620   39.4120   29.0140 N   0  0  0  0  0  0  0  0  0  0  0  0
   43.9690   39.7590   28.1310 C   0  0  0  0  0  0  0  0  0  0  0  0
   45.2810   39.7630   28.1270 O   0  0  0  0  0  0  0  0  0  0  0  0
   42.1600   38.6800   29.7860 C   0  0  0  0  0  0  0  0  0  0  0  0
  3  7  1  0
  4  3  1  0
  5  1  1  0
  5 10  1  0
  5  2  1  0
  8 15  1  0
  8  6  1  0
  9 10  1  0
 11 13  2  0
 12  2  1  0
 13  8  1  0
 14 13  1  0
 15 12  1  0
 15  4  1  0
M  END
$$$$

     RDKit          3D

 15 14  0  0  0  0  0  0  0  0999 V2000
   42.4420   38.9060   30.2130 O   0  0  0  0  0  0  0  0  0  0  0  0
   43.6630   38.1180   32.2910 S   0  0  0  0  0  0  0  0  0  0  0  0
   40.7350   39.7660   28.8610 C   0  0  0  0  0  0  0  0  0  0  0  0
   42.0380   38.9090   34.1140 O   0  0  0  0  0  0  0  0  0  0  0  0
   40.2580   38.2230   28.2930 S   0  0  0  0  0  0  0  0  0  0  0  0
   42.6930   39.9370   27.4300 O   0  0  0  0  0  0  0  0  0  0  0  0
   40.9710   37.8600   31.9260 C   0  0  0  0  0  0  0  0  0  0  0  0
   40.2420   41.1930   28.9060 C   0  0  0  0  0  0  0  0  0  0  0  0
   43.0270   41.0710   29.4910 O   0  0  0  0  0  0  0  0  0  0  0  0
   43.7030   39.8150   32.5300 C   0  0  0  0  0  0  0  0  0  0  0  0
   44.7420   37.9010   33.5390 N   0  0  0  0  0  0  0  0  0  0  0  0
   38.4020   41.2130   29.0450 Br  0  0  0  0  0  0  0  0  0  0  0  0
   42.4890   39.8120   28.9270 P   0  0  0  0  0  0  0  0  0  0  0  0
   41.2410   38.9590   31.0510 C   0  0  0  0  0  0  0  0  0  0  0  0
   42.1600   37.8670   32.9350 C   0  0  0  0  0  0  0  0  0  0  0  0
  1 14  1  0
  2 10  1  0
  2 15  1  0
  2 11  1  0
  3  8  1  0
  3 13  1  0
  5  3  2  0
  7 15  1  0
  8 12  1  0
 13  6  2  0
 13  9  1  0
 13  1  1  0
 14  7  1  0
 15  4  1  0
M  END
$$$$

     RDKit          3D

 13 12  0  0  0  0  0  0  0  0999 V2000
   41.2280   36.8980   32.4650 C   0  0  0  0  0  0  0  0  0  0  0  0
   44.5280   39.7840   29.3650 O   0  0  0  0  0  0  0  0  0  0  0  0
   39.8090   39.7610   30.5270 O   0  0  0  0  0  0  0  0  0  0  0  0
   42.4480   40.2920   30.7370 O   0  0  0  0  0  0  0  0  0  0  0  0
   41.4610   39.0000   28.7330 O   0  0  0  0  0  0  0  0  0  0  0  0
   44.2790   40.3350   30.7230 P   0  0  0  0  0  0  0  0  0  0  0  0
   42.7230   37.7830   30.9770 O   0  0  0  0  0  0  0  0  0  0  0  0
   44.5120   39.6390   31.9010 O   0  0  0  0  0  0  0  0  0  0  0  0
   44.4350   41.8640   30.7190 O   0  0  0  0  0  0  0  0  0  0  0  0
   41.2820   37.7430   31.1250 C   0  0  0  0  0  0  0  0  0  0  0  0
   40.7770   35.5640   32.4050 C   0  0  0  0  0  0  0  0  0  0  0  0
   40.2330   37.3050   30.2830 O   0  0  0  0  0  0  0  0  0  0  0  0
   41.3100   39.3610   30.2450 P   0  0  0  0  0  0  0  0  0  0  0  0
  2  6  2  0
  6  4  1  0
  6  8  1  0
  7 10  1  0
  9  6  1  0
 10  1  1  0
 11  1  1  0
 12 10  1  0
 13  5  2  0
 13  3  1  0
 13  4  1  0
 13 10  1  0
M  END
$$$$

     RDKit          3D

  7  7  0  0  0  0  0  0  0  0999 V2000
   42.0830   40.1400   30.5560 O   0  0  0  0  0  0  0  0  0  0  0  0
   44.9210   40.1950   30.0600 C   0  0  0  0  0  0  0  0  0  0  0  0
   45.5930   38.9210   30.8300 C   0  0  0  0  0  0  0  0  0  0  0  0
   42.2760   42.5640   31.1930 C   0  0  0  0  0  0  0  0  0  0  0  0
   43.5800   40.1860   30.4540 C   0  0  0  0  0  0  0  0  0  0  0  0
   45.7920   39.6720   31.9710 N   0  0  0  0  0  0  0  0  0  0  0  0
   42.9220   41.1580   31.2540 C   0  0  0  0  0  0  0  0  0  0  0  0
  1  7  1  0
  2  3  1  0
  3  6  1  0
  5  2  1  0
  5  1  1  0
  5  7  1  0
  7  4  1  0
M  END
$$$$

     RDKit          3D

  6  5  0  0  0  0  0  0  0  0999 V2000
   40.8480   37.1900   31.7200 O   0  0  0  0  0  0  0  0  0  0  0  0
   43.0590   38.9740   30.9870 O   0  0  0  0  0  0  0  0  0  0  0  0
   41.7210   39.1360   30.5400 C   0  0  0  0  0  0  0  0  0  0  0  0
   40.7580   38.6060   31.5890 C   0  0  0  0  0  0  0  0  0  0  0  0
   41.4580   40.5590   30.0270 C   0  0  0  0  0  0  0  0  0  0  0  0
   40.3300   41.0740   30.0550 O   0  0  0  0  0  0  0  0  0  0  0  0
  3  2  1  0
  3  4  1  0
  4  1  1  0
  5  6  2  0
  5  3  1  0
M  END
$$$$

     RDKit          3D

 15 14  0  0  0  0  0  0  0  0999 V2000
   39.2210   41.4110   29.4210 O   0  0  0  0  0  0  0  0  0  0  0  0
   40.5000   37.8850   28.3610 S   0  0  0  0  0  0  0  0  0  0  0  0
   39.7670   40.4930   28.7880 C   0  0  0  0  0  0  0  0  0  0  0  0
   40.7320   38.7720   31.5470 C   0  0  0  0  0  0  0  0  0  0  0  0
   40.4310   37.3030   31.6030 O   0  0  0  0  0  0  0  0  0  0  0  0
   41.9690   39.0670   32.3900 C   0  0  0  0  0  0  0  0  0  0  0  0
   41.4340   40.7680   30.3920 O   0  0  0  0  0  0  0  0  0  0  0  0
   43.2620   38.6310   31.6100 C   0  0  0  0  0  0  0  0  0  0  0  0
   39.9050   39.2250   29.2840 C   0  0  0  0  0  0  0  0  0  0  0  0
   44.0430   39.4000   30.2110 Cl  0  0  0  0  0  0  0  0  0  0  0  0
   41.0090   39.4230   30.2050 C   0  0  0  0  0  0  0  0  0  0  0  0
   40.1990   40.7340   27.6280 O   0  0  0  0  0  0  0  0  0  0  0  0
   45.3340   37.7740   32.3530 O   0  0  0  0  0  0  0  0  0  0  0  0
   41.7960   38.6430   33.7660 N   0  0  0  0  0  0  0  0  0  0  0  0
   44.3940   38.6050   32.6190 C   0  0  0  0  0  0  0  0  0  0  0  0
  3  9  1  0
  3  1  1  0
  4  5  1  0
  4  6  1  0
  6 14  1  0
  8 10  1  0
  8  6  1  0
  8 15  1  0
  9  2  1  0
  9 11  1  0
 11  7  1  0
 11  4  1  0
 12  3  2  0
 13 15  1  0
M  END
$$$$

     RDKit          3D

  5  4  0  0  0  0  0  0  0  0999 V2000
   40.4150   39.0620   30.6380 C   0  0  0  0  0  0  0  0  0  0  0  0
   41.7070   38.4590   31.2800 C   0  0  0  0  0  0  0  0  0  0  0  0
   41.5280   37.2980   32.2800 C   0  0  0  0  0  0  0  0  0  0  0  0
   40.5130   36.2370   31.8130 C   0  0  0  0  0  0  0  0  0  0  0  0
   42.8560   36.6720   32.5850 N   0  0  0  0  0  0  0  0  0  0  0  0
  1  2  1  0
  2  3  1  0
  3  4  1  0
  3  5  1  0
M  END
$$$$

     RDKit          3D

 12 13  0  0  0  0  0  0  0  0999 V2000
   39.0480   39.6780   27.7320 C   0  0  0  0  0  0  0  0  0  0  0  0
   37.3460   41.8450   28.0800 C   0  0  0  0  0  0  0  0  0  0  0  0
   39.8710   39.9010   30.0530 C   0  0  0  0  0  0  0  0  0  0  0  0
   38.2310   40.0430   26.6900 C   0  0  0  0  0  0  0  0  0  0  0  0
   41.7670   40.0150   28.6470 O   0  0  0  0  0  0  0  0  0  0  0  0
   38.9750   40.3750   28.9560 C   0  0  0  0  0  0  0  0  0  0  0  0
   40.5120   38.0450   28.5820 O   0  0  0  0  0  0  0  0  0  0  0  0
   39.8750   37.8670   26.4790 O   0  0  0  0  0  0  0  0  0  0  0  0
   40.7550   39.2740   29.1860 C   0  0  0  0  0  0  0  0  0  0  0  0
   38.1840   41.4950   29.1610 C   0  0  0  0  0  0  0  0  0  0  0  0
   39.8290   38.4930   27.5580 C   0  0  0  0  0  0  0  0  0  0  0  0
   37.3870   41.1070   26.9160 C   0  0  0  0  0  0  0  0  0  0  0  0
  1  6  1  0
  2 10  1  0
  4 12  1  0
  4  1  2  0
  5  9  2  0
  6 10  2  0
  6  3  1  0
  7  9  1  0
  8 11  2  0
  9  3  1  0
 11  1  1  0
 11  7  1  0
 12  2  2  0
M  END
$$$$

     RDKit          3D

 22 23  0  0  0  0  0  0  0  0999 V2000
   42.3710   38.8280   30.2340 N   0  0  0  0  0  0  0  0  0  0  0  0
   40.0810   37.9250   27.8440 O   0  0  0  0  0  0  0  0  0  0  0  0
   41.0130   39.1130   29.9330 C   0  0  0  0  0  0  0  0  0  0  0  0
   43.8690   37.6510   33.2370 N   0  0  0  0  0  0  0  0  0  0  0  0
   40.9220   42.3940   28.0240 C   0  0  0  0  0  0  0  0  0  0  0  0
   45.1340   38.6640   29.6150 S   0  0  0  0  0  0  0  0  0  0  0  0
   38.8830   42.1190   29.2150 C   0  0  0  0  0  0  0  0  0  0  0  0
   39.7080   42.8880   28.4310 C   0  0  0  0  0  0  0  0  0  0  0  0
   40.6080   40.4450   29.3700 C   0  0  0  0  0  0  0  0  0  0  0  0
   40.4990   37.9040   29.0870 C   0  0  0  0  0  0  0  0  0  0  0  0
   41.3050   38.6160   32.1940 N   0  0  0  0  0  0  0  0  0  0  0  0
   43.7450   38.2500   32.1330 C   0  0  0  0  0  0  0  0  0  0  0  0
   41.3910   41.1950   28.5190 C   0  0  0  0  0  0  0  0  0  0  0  0
   46.6740   39.4790   29.9060 C   0  0  0  0  0  0  0  0  0  0  0  0
   39.2320   44.1540   27.9170 C   0  0  0  0  0  0  0  0  0  0  0  0
   45.0040   38.3390   31.4170 C   0  0  0  0  0  0  0  0  0  0  0  0
   42.5100   38.6080   31.6300 C   0  0  0  0  0  0  0  0  0  0  0  0
   46.2500   38.0180   31.7310 C   0  0  0  0  0  0  0  0  0  0  0  0
   40.4990   36.9170   29.8120 O   0  0  0  0  0  0  0  0  0  0  0  0
   42.7930   40.6780   28.1700 C   0  0  0  0  0  0  0  0  0  0  0  0
   47.2190   38.9440   31.2150 C   0  0  0  0  0  0  0  0  0  0  0  0
   39.3320   40.9190   29.7020 C   0  0  0  0  0  0  0  0  0  0  0  0
  1 17  1  0
  2 10  2  0
  3 10  1  0
  3  1  1  0
  5  8  2  0
  5 13  1  0
  6 14  1  0
  6 16  1  0
  7 22  2  0
  8  7  1  0
  9 22  1  0
  9  3  1  0
 10 19  1  0
 12  4  2  0
 13  9  2  0
 14 21  1  0
 15  8  1  0
 16 18  1  0
 16 12  1  0
 17 12  1  0
 17 11  2  0
 20 13  1  0
 21 18  1  0
M  END
$$$$
