
     RDKit          3D

 15 16  0  0  0  0  0  0  0  0999 V2000
   42.5160   35.9910   30.9190 O   0  0  0  0  0  0  0  0  0  0  0  0
   41.8680   36.5450   26.9830 C   0  0  0  0  0  0  0  0  0  0  0  0
   41.1420   37.8560   27.4330 C   0  0  0  0  0  0  0  0  0  0  0  0
   42.6610   36.2190   28.1470 C   0  0  0  0  0  0  0  0  0  0  0  0
   43.6160   36.7670   30.2940 C   0  0  0  0  0  0  0  0  0  0  0  0
   41.3770   37.8900   28.8500 O   0  0  0  0  0  0  0  0  0  0  0  0
   41.5450   39.0770   26.6710 C   0  0  0  0  0  0  0  0  0  0  0  0
   44.7070   36.8350   31.6810 P   0  0  0  0  0  0  0  0  0  0  0  0
   44.1900   35.6310   28.0650 C   0  0  0  0  0  0  0  0  0  0  0  0
   40.8410   35.3810   26.6070 O   0  0  0  0  0  0  0  0  0  0  0  0
   42.8320   37.4780   29.0730 C   0  0  0  0  0  0  0  0  0  0  0  0
   44.3000   36.1180   32.7280 O   0  0  0  0  0  0  0  0  0  0  0  0
   44.2680   35.5950   29.3680 C   0  0  0  0  0  0  0  0  0  0  0  0
   46.2590   36.3720   31.5540 O   0  0  0  0  0  0  0  0  0  0  0  0
   44.8400   38.3800   31.7590 O   0  0  0  0  0  0  0  0  0  0  0  0
  2 10  1  0
  2  3  1  0
  2  4  1  0
  3  7  1  0
  3  6  1  0
  4  9  1  0
  4 11  1  0
  5  1  1  0
  5  8  1  0
  8 15  1  0
  8 12  1  0
  9 13  1  0
 11  6  1  0
 11  5  1  0
 13  5  1  0
 14  8  2  0
M  END
$$$$

     RDKit          3D

 16 17  0  0  0  0  0  0  0  0999 V2000
   42.0200   38.2910   27.3320 C   0  0  0  0  0  0  0  0  0  0  0  0
   42.0470   38.8960   25.9600 C   0  0  0  0  0  0  0  0  0  0  0  0
   44.5750   37.2010   29.9430 C   0  0  0  0  0  0  0  0  0  0  0  0
   44.7580   35.4810   28.0900 O   0  0  0  0  0  0  0  0  0  0  0  0
   41.0880   34.8140   26.6900 N   0  0  0  0  0  0  0  0  0  0  0  0
   41.1900   37.0390   27.1840 C   0  0  0  0  0  0  0  0  0  0  0  0
   42.4450   36.2580   29.4720 O   0  0  0  0  0  0  0  0  0  0  0  0
   46.1620   37.5650   29.2220 P   0  0  0  0  0  0  0  0  0  0  0  0
   46.0810   38.1210   27.9300 O   0  0  0  0  0  0  0  0  0  0  0  0
   41.5630   35.9070   26.7010 C   0  0  0  0  0  0  0  0  0  0  0  0
   45.3230   36.0930   29.1560 C   0  0  0  0  0  0  0  0  0  0  0  0
   43.3230   37.3850   29.2170 C   0  0  0  0  0  0  0  0  0  0  0  0
   46.8100   38.3200   30.2330 O   0  0  0  0  0  0  0  0  0  0  0  0
   42.1010   37.4970   30.0160 C   0  0  0  0  0  0  0  0  0  0  0  0
   43.3220   38.0680   27.9450 O   0  0  0  0  0  0  0  0  0  0  0  0
   44.4940   37.1410   31.3010 O   0  0  0  0  0  0  0  0  0  0  0  0
  1  2  1  0
  1 15  1  0
  3 16  1  0
  5 10  2  0
  6  1  1  0
  7 14  1  0
  8  9  2  0
  8  3  1  0
  8 13  1  0
 10  6  1  0
 11  4  1  0
 11  8  1  0
 11  3  1  0
 12 15  1  0
 12  7  1  0
 12  3  1  0
 12 14  1  0
M  END
$$$$

     RDKit          3D

 11 10  0  0  0  0  0  0  0  0999 V2000
   43.9410   35.7770   31.5870 C   0  0  0  0  0  0  0  0  0  0  0  0
   41.5880   36.9170   26.9410 C   0  0  0  0  0  0  0  0  0  0  0  0
   42.5790   37.3110   28.0830 C   0  0  0  0  0  0  0  0  0  0  0  0
   43.2360   34.5780   31.1410 N   0  0  0  0  0  0  0  0  0  0  0  0
   40.4990   37.9860   26.7690 C   0  0  0  0  0  0  0  0  0  0  0  0
   42.2800   36.9030   25.5640 C   0  0  0  0  0  0  0  0  0  0  0  0
   42.4500   36.6360   29.3780 O   0  0  0  0  0  0  0  0  0  0  0  0
   43.0370   38.2600   31.1160 O   0  0  0  0  0  0  0  0  0  0  0  0
   43.4660   37.0370   30.5190 P   0  0  0  0  0  0  0  0  0  0  0  0
   44.6280   37.0150   29.8000 O   0  0  0  0  0  0  0  0  0  0  0  0
   40.9160   35.5510   27.1920 C   0  0  0  0  0  0  0  0  0  0  0  0
  2 11  1  0
  2  3  1  0
  3  7  1  0
  4  1  1  0
  5  2  1  0
  6  2  1  0
  7  9  1  0
  9 10  2  0
  9  8  1  0
  9  1  1  0
M  END
$$$$

     RDKit          3D

 13 12  0  0  0  0  0  0  0  0999 V2000
   41.1260   37.5230   26.5150 O   0  0  0  0  0  0  0  0  0  0  0  0
   43.5550   35.7130   29.7000 C   0  0  0  0  0  0  0  0  0  0  0  0
   41.9380   37.8420   29.3730 C   0  0  0  0  0  0  0  0  0  0  0  0
   42.7990   34.5250   31.5830 O   0  0  0  0  0  0  0  0  0  0  0  0
   43.5200   36.5600   31.9310 O   0  0  0  0  0  0  0  0  0  0  0  0
   43.2750   37.0030   26.3600 O   0  0  0  0  0  0  0  0  0  0  0  0
   42.1250   36.8450   26.8510 C   0  0  0  0  0  0  0  0  0  0  0  0
   43.3230   35.5780   31.1940 C   0  0  0  0  0  0  0  0  0  0  0  0
   42.2130   36.3240   29.2450 C   0  0  0  0  0  0  0  0  0  0  0  0
   44.1220   38.9380   29.0110 N   0  0  0  0  0  0  0  0  0  0  0  0
   41.2310   35.8840   30.0920 O   0  0  0  0  0  0  0  0  0  0  0  0
   43.1630   38.5700   29.5410 C   0  0  0  0  0  0  0  0  0  0  0  0
   41.9150   35.7230   27.8600 C   0  0  0  0  0  0  0  0  0  0  0  0
  1  7  1  0
  2  8  1  0
  3 12  1  0
  6  7  2  0
  7 13  1  0
  8  4  2  0
  8  5  1  0
  9  3  1  0
  9  2  1  0
  9 11  1  0
 10 12  2  0
 13  9  1  0
M  END
$$$$

     RDKit          3D

 12 12  0  0  0  0  0  0  0  0999 V2000
   44.1790   35.1940   31.8200 O   0  0  0  0  0  0  0  0  0  0  0  0
   43.2350   37.8960   30.4170 C   0  0  0  0  0  0  0  0  0  0  0  0
   41.7180   35.8620   28.6900 C   0  0  0  0  0  0  0  0  0  0  0  0
   42.3150   38.1650   27.9690 C   0  0  0  0  0  0  0  0  0  0  0  0
   41.0140   34.7600   28.2770 N   0  0  0  0  0  0  0  0  0  0  0  0
   43.2820   36.1810   32.1670 C   0  0  0  0  0  0  0  0  0  0  0  0
   42.8640   36.5870   30.9250 C   0  0  0  0  0  0  0  0  0  0  0  0
   45.3250   38.4160   31.0830 O   0  0  0  0  0  0  0  0  0  0  0  0
   42.7860   38.5750   29.2510 C   0  0  0  0  0  0  0  0  0  0  0  0
   41.8850   36.8350   27.7050 C   0  0  0  0  0  0  0  0  0  0  0  0
   42.1370   35.7310   30.0800 N   0  0  0  0  0  0  0  0  0  0  0  0
   44.1890   38.5480   31.2460 C   0  0  0  0  0  0  0  0  0  0  0  0
  1  6  1  0
  2  7  1  0
  2 12  1  0
  3 11  2  0
  4  9  1  0
  5  3  1  0
  7  6  1  0
  8 12  2  0
  9  2  2  0
 10  4  2  0
 10  3  1  0
 11  7  1  0
M  END
$$$$

     RDKit          3D

  7  7  0  0  0  0  0  0  0  0999 V2000
   43.2340   36.5690   31.1690 N   0  0  0  0  0  0  0  0  0  0  0  0
   43.5000   35.3850   30.2770 C   0  0  0  0  0  0  0  0  0  0  0  0
   42.5400   36.7670   28.5000 C   0  0  0  0  0  0  0  0  0  0  0  0
   41.8390   36.9280   27.3900 N   0  0  0  0  0  0  0  0  0  0  0  0
   43.6090   37.8110   30.4420 C   0  0  0  0  0  0  0  0  0  0  0  0
   43.0180   38.0530   29.0410 C   0  0  0  0  0  0  0  0  0  0  0  0
   42.7940   35.5140   28.9920 N   0  0  0  0  0  0  0  0  0  0  0  0
  2  1  1  0
  3  7  1  0
  3  6  1  0
  4  3  2  0
  5  1  1  0
  6  5  1  0
  7  2  1  0
M  END
$$$$

     RDKit          3D

 19 19  0  0  0  0  0  0  0  0999 V2000
   42.5460   38.1520   24.8950 O   0  0  0  0  0  0  0  0  0  0  0  0
   39.8650   39.9340   25.4260 C   0  0  0  0  0  0  0  0  0  0  0  0
   42.7100   34.1050   31.1870 N   0  0  0  0  0  0  0  0  0  0  0  0
   39.5810   35.1560   31.7200 C   0  0  0  0  0  0  0  0  0  0  0  0
   35.7140   34.9850   33.0800 C   0  0  0  0  0  0  0  0  0  0  0  0
   41.3210   36.5730   28.7170 C   0  0  0  0  0  0  0  0  0  0  0  0
   40.9430   38.2990   27.0850 N   0  0  0  0  0  0  0  0  0  0  0  0
   41.8440   38.0070   28.2140 C   0  0  0  0  0  0  0  0  0  0  0  0
   40.7320   35.2880   30.9780 C   0  0  0  0  0  0  0  0  0  0  0  0
   41.6570   37.3240   25.7960 P   0  0  0  0  0  0  0  0  0  0  0  0
   38.3990   34.7760   32.6450 C   0  0  0  0  0  0  0  0  0  0  0  0
   36.9210   34.9530   31.8470 S   0  0  0  0  0  0  0  0  0  0  0  0
   42.8960   36.4410   29.6170 S   0  0  0  0  0  0  0  0  0  0  0  0
   40.7600   39.7390   26.6910 C   0  0  0  0  0  0  0  0  0  0  0  0
   41.1720   35.4680   27.6760 C   0  0  0  0  0  0  0  0  0  0  0  0
   41.9840   35.1250   30.5700 C   0  0  0  0  0  0  0  0  0  0  0  0
   40.3660   36.8370   25.1800 O   0  0  0  0  0  0  0  0  0  0  0  0
   38.4290   39.3860   25.6790 C   0  0  0  0  0  0  0  0  0  0  0  0
   42.2850   35.9580   26.6170 O   0  0  0  0  0  0  0  0  0  0  0  0
  2 18  1  0
  2 14  1  0
  4 11  1  0
  6 13  1  0
  7  8  1  0
  8  6  1  0
  9  4  3  0
 10  1  2  0
 10 19  1  0
 10  7  1  0
 12 11  1  0
 12  5  1  0
 13 16  1  0
 14  7  1  0
 15  6  1  0
 16  9  1  0
 16  3  1  0
 17 10  1  0
 19 15  1  0
M  END
$$$$

     RDKit          3D

 20 22  0  0  0  0  0  0  0  0999 V2000
   43.1210   39.1580   27.1400 C   0  0  0  0  0  0  0  0  0  0  0  0
   41.0260   37.2040   26.9670 O   0  0  0  0  0  0  0  0  0  0  0  0
   41.3290   38.2830   25.8650 C   0  0  0  0  0  0  0  0  0  0  0  0
   42.7750   38.7240   25.6890 C   0  0  0  0  0  0  0  0  0  0  0  0
   43.7960   40.3530   27.2160 O   0  0  0  0  0  0  0  0  0  0  0  0
   45.7940   36.4450   28.0870 C   0  0  0  0  0  0  0  0  0  0  0  0
   41.4650   36.2240   29.0460 N   0  0  0  0  0  0  0  0  0  0  0  0
   43.8950   35.8770   32.0700 C   0  0  0  0  0  0  0  0  0  0  0  0
   43.2550   37.1380   28.7430 N   0  0  0  0  0  0  0  0  0  0  0  0
   44.0710   36.3350   29.6740 C   0  0  0  0  0  0  0  0  0  0  0  0
   43.9030   37.9820   27.8180 C   0  0  0  0  0  0  0  0  0  0  0  0
   40.5890   39.5370   26.3880 C   0  0  0  0  0  0  0  0  0  0  0  0
   40.7340   37.8680   24.5130 C   0  0  0  0  0  0  0  0  0  0  0  0
   43.2060   37.1420   31.8630 C   0  0  0  0  0  0  0  0  0  0  0  0
   45.1390   37.4980   27.3820 C   0  0  0  0  0  0  0  0  0  0  0  0
   41.2820   34.8210   27.1600 O   0  0  0  0  0  0  0  0  0  0  0  0
   45.2640   35.8320   29.2170 C   0  0  0  0  0  0  0  0  0  0  0  0
   41.8210   35.5360   30.3480 C   0  0  0  0  0  0  0  0  0  0  0  0
   41.4810   36.0740   27.7260 C   0  0  0  0  0  0  0  0  0  0  0  0
   43.1810   35.9710   30.8570 C   0  0  0  0  0  0  0  0  0  0  0  0
  1  5  1  0
  1 11  1  0
  2 19  1  0
  3 12  1  0
  3  2  1  0
  4  3  1  0
  4  1  1  0
  6 17  1  0
  7 18  1  0
  9 10  1  0
 10 20  1  0
 11  9  2  0
 13  3  1  0
 14  8  1  0
 15 11  1  0
 15  6  2  0
 16 19  2  0
 17 10  2  0
 18 20  1  0
 19  7  1  0
 20 14  1  0
 20  8  1  0
M  END
$$$$

     RDKit          3D

  4  3  0  0  0  0  0  0  0  0999 V2000
   42.5690   36.1360   28.9470 C   0  0  0  0  0  0  0  0  0  0  0  0
   41.5680   36.7390   29.9130 C   0  0  0  0  0  0  0  0  0  0  0  0
   41.7620   35.5900   27.4720 Cl  0  0  0  0  0  0  0  0  0  0  0  0
   43.8000   35.7650   29.7270 C   0  0  0  0  0  0  0  0  0  0  0  0
  1  4  1  0
  1  2  1  0
  3  1  1  0
M  END
$$$$

     RDKit          3D

 21 22  0  0  0  0  0  0  0  0999 V2000
   44.9970   35.7150   30.1550 C   0  0  0  0  0  0  0  0  0  0  0  0
   41.9310   36.4780   29.1760 C   0  0  0  0  0  0  0  0  0  0  0  0
   39.9180   36.7620   33.3670 C   0  0  0  0  0  0  0  0  0  0  0  0
   45.0430   35.7360   27.7270 C   0  0  0  0  0  0  0  0  0  0  0  0
   37.1080   37.4440   34.2130 C   0  0  0  0  0  0  0  0  0  0  0  0
   37.4260   35.1670   33.8150 F   0  0  0  0  0  0  0  0  0  0  0  0
   43.7950   35.9060   28.2680 N   0  0  0  0  0  0  0  0  0  0  0  0
   45.6460   35.5350   28.8360 O   0  0  0  0  0  0  0  0  0  0  0  0
   42.5040   34.9650   31.6550 O   0  0  0  0  0  0  0  0  0  0  0  0
   41.3770   37.0480   31.4800 O   0  0  0  0  0  0  0  0  0  0  0  0
   43.7990   35.4900   29.7420 C   0  0  0  0  0  0  0  0  0  0  0  0
   38.7540   37.2240   34.1570 C   0  0  0  0  0  0  0  0  0  0  0  0
   36.2210   37.8820   35.4310 C   0  0  0  0  0  0  0  0  0  0  0  0
   40.3240   36.2620   31.9570 C   0  0  0  0  0  0  0  0  0  0  0  0
   36.3790   36.1490   33.7170 C   0  0  0  0  0  0  0  0  0  0  0  0
   42.9610   37.0950   28.5520 C   0  0  0  0  0  0  0  0  0  0  0  0
   42.6100   36.2940   30.8270 P   0  0  0  0  0  0  0  0  0  0  0  0
   35.2080   35.7140   34.6600 C   0  0  0  0  0  0  0  0  0  0  0  0
   45.4280   35.7440   26.6190 O   0  0  0  0  0  0  0  0  0  0  0  0
   41.2740   35.2860   28.8640 C   0  0  0  0  0  0  0  0  0  0  0  0
   41.0110   34.9060   27.5810 O   0  0  0  0  0  0  0  0  0  0  0  0
  2 20  1  0
  2 17  1  0
  3 12  2  3
  4  7  1  0
  4  8  1  0
  5 13  1  0
  7 16  1  0
  7 11  1  0
  8  1  1  0
 10 14  1  0
 11  1  1  0
 11 17  1  0
 12  5  1  0
 14  3  1  0
 15  6  1  0
 15  5  1  0
 15 18  1  0
 16  2  1  0
 17 10  1  0
 17  9  2  0
 19  4  2  0
 21 20  1  0
M  END
$$$$

     RDKit          3D

 12 11  0  0  0  0  0  0  0  0999 V2000
   44.0250   37.2060   29.2500 C   0  0  0  0  0  0  0  0  0  0  0  0
   43.4180   34.7560   31.3930 N   0  0  0  0  0  0  0  0  0  0  0  0
   44.6770   35.5070   30.7950 C   0  0  0  0  0  0  0  0  0  0  0  0
   42.3590   37.0180   25.7610 O   0  0  0  0  0  0  0  0  0  0  0  0
   40.9800   34.2800   31.4040 C   0  0  0  0  0  0  0  0  0  0  0  0
   43.3300   37.0000   26.5700 C   0  0  0  0  0  0  0  0  0  0  0  0
   44.3540   36.8900   30.4660 C   0  0  0  0  0  0  0  0  0  0  0  0
   42.9800   37.2240   28.1040 C   0  0  0  0  0  0  0  0  0  0  0  0
   44.5370   36.9610   26.1290 O   0  0  0  0  0  0  0  0  0  0  0  0
   41.4970   36.1360   29.9200 C   0  0  0  0  0  0  0  0  0  0  0  0
   41.6900   38.0330   28.2750 N   0  0  0  0  0  0  0  0  0  0  0  0
   42.0130   35.3210   31.0670 N   0  0  0  0  0  0  0  0  0  0  0  0
  1  7  1  0
  3  2  1  0
  4  6  2  0
  6  8  1  0
  7  3  1  0
  8 11  1  0
  8  1  1  0
  9  6  1  0
 10 12  1  0
 12  2  1  0
 12  5  1  0
M  END
$$$$

     RDKit          3D

 15 14  0  0  0  0  0  0  0  0999 V2000
   39.1870   39.5080   25.9080 C   0  0  0  0  0  0  0  0  0  0  0  0
   44.8890   35.4950   31.3160 O   0  0  0  0  0  0  0  0  0  0  0  0
   45.8390   36.3090   29.0150 O   0  0  0  0  0  0  0  0  0  0  0  0
   43.5240   35.7180   29.4880 O   0  0  0  0  0  0  0  0  0  0  0  0
   41.3760   38.4630   26.3010 C   0  0  0  0  0  0  0  0  0  0  0  0
   44.3340   37.8390   30.4910 O   0  0  0  0  0  0  0  0  0  0  0  0
   40.8630   34.7810   28.6670 O   0  0  0  0  0  0  0  0  0  0  0  0
   42.7310   37.0220   27.8150 C   0  0  0  0  0  0  0  0  0  0  0  0
   40.2300   38.5830   25.3190 C   0  0  0  0  0  0  0  0  0  0  0  0
   42.4720   36.5480   29.2500 C   0  0  0  0  0  0  0  0  0  0  0  0
   43.8640   36.6900   26.9590 O   0  0  0  0  0  0  0  0  0  0  0  0
   41.4280   37.1150   27.0080 C   0  0  0  0  0  0  0  0  0  0  0  0
   44.7770   36.3950   30.1290 P   0  0  0  0  0  0  0  0  0  0  0  0
   41.2800   35.6790   29.6670 C   0  0  0  0  0  0  0  0  0  0  0  0
   41.5610   34.9030   30.9030 C   0  0  0  0  0  0  0  0  0  0  0  0
  3 13  2  0
  4 13  1  0
  5 12  1  0
  7 14  1  0
  8 11  1  0
  8 10  1  0
  9  1  1  0
  9  5  1  0
 10  4  1  0
 10 14  1  0
 12  8  1  0
 13  6  1  0
 13  2  1  0
 14 15  1  0
M  END
$$$$

     RDKit          3D

 22 25  0  0  0  0  0  0  0  0999 V2000
   42.2740   36.2020   28.7950 C   0  0  0  0  0  0  0  0  0  0  0  0
   43.5630   36.4260   29.5470 C   0  0  0  0  0  0  0  0  0  0  0  0
   37.7640   38.8730   25.5080 C   0  0  0  0  0  0  0  0  0  0  0  0
   42.2480   38.0060   25.9720 N   0  0  0  0  0  0  0  0  0  0  0  0
   44.4660   36.3080   28.2320 C   0  0  0  0  0  0  0  0  0  0  0  0
   39.6330   37.3900   24.9250 O   0  0  0  0  0  0  0  0  0  0  0  0
   40.8710   34.3700   31.9520 C   0  0  0  0  0  0  0  0  0  0  0  0
   47.2150   36.4460   27.1570 C   0  0  0  0  0  0  0  0  0  0  0  0
   40.8930   37.9520   29.7160 O   0  0  0  0  0  0  0  0  0  0  0  0
   43.2910   37.2750   26.8390 C   0  0  0  0  0  0  0  0  0  0  0  0
   45.1540   34.9960   28.0170 C   0  0  0  0  0  0  0  0  0  0  0  0
   39.3560   38.6170   25.6260 C   0  0  0  0  0  0  0  0  0  0  0  0
   40.7040   36.6470   29.3060 C   0  0  0  0  0  0  0  0  0  0  0  0
   41.2460   37.5350   27.0100 C   0  0  0  0  0  0  0  0  0  0  0  0
   41.5090   34.5170   30.9670 C   0  0  0  0  0  0  0  0  0  0  0  0
   45.7110   36.6150   27.6250 C   0  0  0  0  0  0  0  0  0  0  0  0
   40.8260   35.0450   29.6140 C   0  0  0  0  0  0  0  0  0  0  0  0
   39.9380   38.4880   27.0660 C   0  0  0  0  0  0  0  0  0  0  0  0
   42.8100   34.0770   30.7200 N   0  0  0  0  0  0  0  0  0  0  0  0
   44.6760   37.1770   26.1820 S   0  0  0  0  0  0  0  0  0  0  0  0
   43.9370   34.9300   30.4620 C   0  0  0  0  0  0  0  0  0  0  0  0
   42.5200   36.8800   27.4560 C   0  0  0  0  0  0  0  0  0  0  0  0
  1 13  1  0
  1  2  1  0
  2 21  1  0
  3 12  1  0
  4 10  1  0
  4 14  1  0
  5  2  1  0
  6 12  1  0
  8 16  1  0
 10 22  1  0
 11  5  1  0
 12 18  1  0
 13 17  1  0
 13  9  1  0
 14 18  1  0
 14 22  1  0
 15  7  2  0
 16 11  1  0
 16  5  1  0
 17 15  1  0
 19 15  1  0
 20 10  1  0
 20 16  1  0
 21 19  1  0
 22  1  1  0
M  END
$$$$

     RDKit          3D

  7  6  0  0  0  0  0  0  0  0999 V2000
   41.5240   37.7950   27.5560 N   0  0  0  0  0  0  0  0  0  0  0  0
   42.4240   37.1810   30.1030 O   0  0  0  0  0  0  0  0  0  0  0  0
   43.6050   36.9860   26.5710 C   0  0  0  0  0  0  0  0  0  0  0  0
   41.8360   35.4600   27.4540 C   0  0  0  0  0  0  0  0  0  0  0  0
   43.1350   36.7210   29.1230 C   0  0  0  0  0  0  0  0  0  0  0  0
   42.5600   36.7680   27.6770 C   0  0  0  0  0  0  0  0  0  0  0  0
   44.2970   36.4400   29.3750 O   0  0  0  0  0  0  0  0  0  0  0  0
  1  6  1  0
  3  6  1  0
  4  6  1  0
  5  7  2  0
  5  2  1  0
  6  5  1  0
M  END
$$$$

     RDKit          3D

  7  6  0  0  0  0  0  0  0  0999 V2000
   41.3900   36.3080   28.2870 C   0  0  0  0  0  0  0  0  0  0  0  0
   40.9530   35.5910   27.3940 O   0  0  0  0  0  0  0  0  0  0  0  0
   44.1790   35.6980   28.7340 O   0  0  0  0  0  0  0  0  0  0  0  0
   43.4040   35.9760   29.6690 C   0  0  0  0  0  0  0  0  0  0  0  0
   41.4140   37.5290   28.1180 O   0  0  0  0  0  0  0  0  0  0  0  0
   43.7660   36.4210   30.7960 O   0  0  0  0  0  0  0  0  0  0  0  0
   41.9080   35.6760   29.5530 C   0  0  0  0  0  0  0  0  0  0  0  0
  1  7  1  0
  2  1  2  0
  3  4  2  0
  4  6  1  0
  5  1  1  0
  7  4  1  0
M  END
$$$$

     RDKit          3D

 19 20  0  0  0  0  0  0  0  0999 V2000
   42.4610   34.3040   31.2490 N   0  0  0  0  0  0  0  0  0  0  0  0
   43.3170   39.4430   24.6200 Cl  0  0  0  0  0  0  0  0  0  0  0  0
   41.8270   37.8290   31.1470 O   0  0  0  0  0  0  0  0  0  0  0  0
   42.0380   36.9100   27.8740 C   0  0  0  0  0  0  0  0  0  0  0  0
   39.3530   36.1280   32.4670 O   0  0  0  0  0  0  0  0  0  0  0  0
   43.6220   38.6950   27.3620 C   0  0  0  0  0  0  0  0  0  0  0  0
   42.9980   38.6220   26.1340 C   0  0  0  0  0  0  0  0  0  0  0  0
   40.7650   34.6610   29.6210 N   0  0  0  0  0  0  0  0  0  0  0  0
   41.5390   35.4790   28.4990 C   0  0  0  0  0  0  0  0  0  0  0  0
   40.4870   34.4900   31.0350 C   0  0  0  0  0  0  0  0  0  0  0  0
   41.5230   36.5640   31.1160 C   0  0  0  0  0  0  0  0  0  0  0  0
   42.7440   35.6330   30.8710 C   0  0  0  0  0  0  0  0  0  0  0  0
   41.2560   33.9130   31.9920 C   0  0  0  0  0  0  0  0  0  0  0  0
   41.7100   38.0050   25.8770 C   0  0  0  0  0  0  0  0  0  0  0  0
   41.1770   37.3270   26.8300 C   0  0  0  0  0  0  0  0  0  0  0  0
   44.9740   40.0830   27.7820 Br  0  0  0  0  0  0  0  0  0  0  0  0
   40.7050   34.9140   27.5050 O   0  0  0  0  0  0  0  0  0  0  0  0
   40.3410   35.9280   31.5470 C   0  0  0  0  0  0  0  0  0  0  0  0
   43.1540   37.7090   28.3090 C   0  0  0  0  0  0  0  0  0  0  0  0
  1 13  1  0
  2  7  1  0
  4 19  1  0
  4  9  1  0
  6 16  1  0
  6 19  2  0
  7  6  1  0
  9  8  1  0
 10  8  1  0
 10 18  1  0
 10 13  1  0
 11  3  1  0
 11 18  1  0
 12 11  1  0
 12  1  1  0
 14  7  2  0
 14 15  1  0
 15  4  2  0
 17  9  2  0
 18  5  1  0
M  END
$$$$

     RDKit          3D

 11 10  0  0  0  0  0  0  0  0999 V2000
   44.1310   36.9570   29.6910 C   0  0  0  0  0  0  0  0  0  0  0  0
   41.4030   35.5710   27.4950 S   0  0  0  0  0  0  0  0  0  0  0  0
   44.5620   34.4580   31.2760 O   0  0  0  0  0  0  0  0  0  0  0  0
   44.7410   36.7460   30.8860 C   0  0  0  0  0  0  0  0  0  0  0  0
   41.8550   37.0860   28.5730 C   0  0  0  0  0  0  0  0  0  0  0  0
   44.7350   38.5670   29.0120 O   0  0  0  0  0  0  0  0  0  0  0  0
   45.0380   35.4010   31.0160 N   0  0  0  0  0  0  0  0  0  0  0  0
   42.8000   35.2850   29.5400 O   0  0  0  0  0  0  0  0  0  0  0  0
   44.9420   37.7210   31.7230 O   0  0  0  0  0  0  0  0  0  0  0  0
   42.2940   37.7470   30.5480 O   0  0  0  0  0  0  0  0  0  0  0  0
   42.6680   36.7070   29.6010 C   0  0  0  0  0  0  0  0  0  0  0  0
  1  6  1  0
  1  4  1  0
  2  5  1  0
  4  7  1  0
  4  9  2  0
  5 11  1  0
  7  3  2  0
  8 11  1  0
 11  1  1  0
 11 10  1  0
M  END
$$$$

     RDKit          3D

 16 16  0  0  0  0  0  0  0  0999 V2000
   42.4800   36.9100   28.9560 N   0  0  0  0  0  0  0  0  0  0  0  0
   41.9610   37.7970   27.8970 C   0  0  0  0  0  0  0  0  0  0  0  0
   45.9860   36.7790   29.5080 O   0  0  0  0  0  0  0  0  0  0  0  0
   46.4300   35.9730   28.3820 C   0  0  0  0  0  0  0  0  0  0  0  0
   44.8060   38.1510   32.2550 C   0  0  0  0  0  0  0  0  0  0  0  0
   44.0380   37.9210   30.9360 C   0  0  0  0  0  0  0  0  0  0  0  0
   44.6180   37.3030   29.6680 C   0  0  0  0  0  0  0  0  0  0  0  0
   43.8270   36.5950   28.5930 C   0  0  0  0  0  0  0  0  0  0  0  0
   41.2860   35.4030   30.3800 N   0  0  0  0  0  0  0  0  0  0  0  0
   44.1640   37.1130   27.2160 C   0  0  0  0  0  0  0  0  0  0  0  0
   45.0490   37.1020   32.8290 O   0  0  0  0  0  0  0  0  0  0  0  0
   41.9510   36.7110   30.3320 C   0  0  0  0  0  0  0  0  0  0  0  0
   42.9690   36.9950   31.3170 N   0  0  0  0  0  0  0  0  0  0  0  0
   43.7660   36.1910   26.2250 O   0  0  0  0  0  0  0  0  0  0  0  0
   45.1430   39.4760   32.8860 C   0  0  0  0  0  0  0  0  0  0  0  0
   41.4310   36.9570   26.8630 O   0  0  0  0  0  0  0  0  0  0  0  0
  1 12  1  0
  2  1  1  0
  4  3  1  0
  5 11  2  0
  5 15  1  0
  6 13  1  0
  6  5  1  0
  7  3  1  0
  7  6  1  0
  8 10  1  0
  8  1  1  0
  8  7  1  0
 12  9  1  0
 12 13  1  0
 14 10  1  0
 16  2  1  0
M  END
$$$$

     RDKit          3D

 15 15  0  0  0  0  0  0  0  0999 V2000
   42.4500   36.0700   28.1020 C   0  0  0  0  0  0  0  0  0  0  0  0
   41.5640   36.6320   25.1000 O   0  0  0  0  0  0  0  0  0  0  0  0
   41.2680   37.0560   26.3310 C   0  0  0  0  0  0  0  0  0  0  0  0
   43.6820   39.4480   30.3880 O   0  0  0  0  0  0  0  0  0  0  0  0
   44.2480   37.2130   29.1550 N   0  0  0  0  0  0  0  0  0  0  0  0
   42.9220   38.7520   31.0230 C   0  0  0  0  0  0  0  0  0  0  0  0
   43.0470   38.3180   27.1270 C   0  0  0  0  0  0  0  0  0  0  0  0
   41.6500   38.4450   26.5740 C   0  0  0  0  0  0  0  0  0  0  0  0
   45.5860   36.8310   31.3390 C   0  0  0  0  0  0  0  0  0  0  0  0
   43.0270   37.4440   28.3820 C   0  0  0  0  0  0  0  0  0  0  0  0
   42.9070   37.3480   31.4170 C   0  0  0  0  0  0  0  0  0  0  0  0
   40.7570   35.0300   26.9220 O   0  0  0  0  0  0  0  0  0  0  0  0
   43.9130   35.1340   30.6340 O   0  0  0  0  0  0  0  0  0  0  0  0
   44.1100   36.5670   30.5580 S   0  0  0  0  0  0  0  0  0  0  0  0
   41.1940   36.2680   27.3530 C   0  0  0  0  0  0  0  0  0  0  0  0
  1 10  1  0
  3  2  1  0
  3  8  1  0
  3 15  1  0
  4  6  2  0
  5 14  1  0
  6 11  1  0
  7 10  1  0
  8  7  1  0
 10  5  1  0
 14 13  1  0
 14  9  1  0
 14 11  1  0
 15 12  1  0
 15  1  1  0
M  END
$$$$

     RDKit          3D

 15 14  0  0  0  0  0  0  0  0999 V2000
   41.9920   39.7460   26.7380 C   0  0  0  0  0  0  0  0  0  0  0  0
   42.0920   40.9320   25.7990 C   0  0  0  0  0  0  0  0  0  0  0  0
   43.5760   37.2900   28.3650 N   0  0  0  0  0  0  0  0  0  0  0  0
   41.7830   36.1130   29.4300 C   0  0  0  0  0  0  0  0  0  0  0  0
   41.1000   35.9320   26.3710 O   0  0  0  0  0  0  0  0  0  0  0  0
   43.7180   38.7520   28.5410 C   0  0  0  0  0  0  0  0  0  0  0  0
   44.5520   39.1650   29.3350 O   0  0  0  0  0  0  0  0  0  0  0  0
   42.4530   36.2620   30.5030 O   0  0  0  0  0  0  0  0  0  0  0  0
   40.7410   39.0320   26.6560 C   0  0  0  0  0  0  0  0  0  0  0  0
   40.9050   35.2470   29.3820 O   0  0  0  0  0  0  0  0  0  0  0  0
   42.1480   36.8580   28.1880 C   0  0  0  0  0  0  0  0  0  0  0  0
   42.1350   36.3680   26.8380 C   0  0  0  0  0  0  0  0  0  0  0  0
   43.0090   39.4680   27.6980 N   0  0  0  0  0  0  0  0  0  0  0  0
   43.2000   36.4660   26.2230 O   0  0  0  0  0  0  0  0  0  0  0  0
   44.5160   36.2820   28.4850 C   0  0  0  0  0  0  0  0  0  0  0  0
  1 13  1  0
  2  1  1  0
  3 15  1  0
  3  6  1  0
  4  8  1  0
  5 12  1  0
  6  7  2  0
  9  1  1  0
 10  4  2  0
 11  3  1  0
 11  4  1  0
 12 11  1  0
 13  6  1  0
 14 12  2  0
M  END
$$$$
