
     RDKit          3D

 10 10  0  0  0  0  0  0  0  0999 V2000
   41.8740   35.0630   25.4550 O   0  0  0  0  0  0  0  0  0  0  0  0
   43.7260   37.7110   28.9350 C   0  0  0  0  0  0  0  0  0  0  0  0
   42.7320   37.3150   28.1510 O   0  0  0  0  0  0  0  0  0  0  0  0
   41.7640   38.0970   28.0900 O   0  0  0  0  0  0  0  0  0  0  0  0
   44.8670   36.8180   29.1050 N   0  0  0  0  0  0  0  0  0  0  0  0
   44.4150   35.4250   29.3400 C   0  0  0  0  0  0  0  0  0  0  0  0
   43.3810   35.0440   28.2330 C   0  0  0  0  0  0  0  0  0  0  0  0
   42.7850   36.0900   25.9550 C   0  0  0  0  0  0  0  0  0  0  0  0
   43.7350   34.1700   27.1610 N   0  0  0  0  0  0  0  0  0  0  0  0
   43.8830   35.5800   26.8490 C   0  0  0  0  0  0  0  0  0  0  0  0
  1  8  1  0
  2  5  1  0
  3  2  1  0
  4  3  1  0
  5  6  1  0
  7  6  1  0
  9  7  1  0
 10  8  1  0
 10  9  1  0
 10  7  1  0
M  END
$$$$

     RDKit          3D

 13 13  0  0  0  0  0  0  0  0999 V2000
   44.2940   35.7200   29.9590 C   0  0  0  0  0  0  0  0  0  0  0  0
   45.3110   34.9290   30.0860 O   0  0  0  0  0  0  0  0  0  0  0  0
   40.8130   35.8280   26.2660 C   0  0  0  0  0  0  0  0  0  0  0  0
   43.2670   35.7850   27.7170 N   0  0  0  0  0  0  0  0  0  0  0  0
   45.6980   37.6690   29.5910 O   0  0  0  0  0  0  0  0  0  0  0  0
   40.8690   37.0990   26.7940 O   0  0  0  0  0  0  0  0  0  0  0  0
   41.4760   35.2180   25.5640 C   0  0  0  0  0  0  0  0  0  0  0  0
   40.4970   35.7150   24.2460 N   0  0  0  0  0  0  0  0  0  0  0  0
   42.7530   35.4700   26.3110 C   0  0  0  0  0  0  0  0  0  0  0  0
   45.1600   36.5680   28.8960 C   0  0  0  0  0  0  0  0  0  0  0  0
   43.1300   35.0550   29.1410 C   0  0  0  0  0  0  0  0  0  0  0  0
   41.0290   33.9120   25.3660 O   0  0  0  0  0  0  0  0  0  0  0  0
   44.0880   37.0470   27.8920 C   0  0  0  0  0  0  0  0  0  0  0  0
  1  2  1  0
  3  6  1  0
  4 13  1  0
  4 11  1  0
  7  8  1  0
  7  3  1  0
  7  9  1  0
  9  4  1  0
 10  5  1  0
 10  1  1  0
 11  1  1  0
 12  7  1  0
 13 10  1  0
M  END
$$$$

     RDKit          3D

 19 22  0  0  0  0  0  0  0  0999 V2000
   41.0600   34.5840   28.8400 C   0  0  0  0  0  0  0  0  0  0  0  0
   43.6930   35.0230   24.9380 O   0  0  0  0  0  0  0  0  0  0  0  0
   42.8600   35.8820   26.9870 C   0  0  0  0  0  0  0  0  0  0  0  0
   42.1170   34.7490   26.8060 C   0  0  0  0  0  0  0  0  0  0  0  0
   39.3240   34.8260   24.2370 C   0  0  0  0  0  0  0  0  0  0  0  0
   41.5440   38.1380   27.4450 O   0  0  0  0  0  0  0  0  0  0  0  0
   40.4550   37.4600   24.3920 C   0  0  0  0  0  0  0  0  0  0  0  0
   43.9610   35.8040   28.1390 O   0  0  0  0  0  0  0  0  0  0  0  0
   39.0760   37.2010   24.0260 C   0  0  0  0  0  0  0  0  0  0  0  0
   40.5120   35.1430   24.9270 C   0  0  0  0  0  0  0  0  0  0  0  0
   42.8170   36.2260   25.3180 C   0  0  0  0  0  0  0  0  0  0  0  0
   39.7820   37.1350   28.7950 C   0  0  0  0  0  0  0  0  0  0  0  0
   41.1060   34.1760   25.7830 N   0  0  0  0  0  0  0  0  0  0  0  0
   41.2390   36.3600   24.8630 C   0  0  0  0  0  0  0  0  0  0  0  0
   39.8540   34.8030   29.6450 C   0  0  0  0  0  0  0  0  0  0  0  0
   41.5340   35.6530   27.8700 C   0  0  0  0  0  0  0  0  0  0  0  0
   40.9070   36.9840   27.9030 C   0  0  0  0  0  0  0  0  0  0  0  0
   38.6410   35.9170   23.7600 C   0  0  0  0  0  0  0  0  0  0  0  0
   39.2290   36.0840   29.6330 C   0  0  0  0  0  0  0  0  0  0  0  0
  1 15  1  0
  3 16  1  0
  3  8  1  0
  4 13  1  0
  4  3  1  0
  4 16  1  0
  6 17  1  0
  7 14  2  0
  9  7  1  0
 10  5  1  0
 10 13  1  0
 11  2  1  0
 11  3  1  0
 12 19  1  0
 14 10  1  0
 14 11  1  0
 16 17  1  0
 16  1  1  0
 17 12  2  0
 18  9  1  0
 18  5  1  0
 19 15  2  0
M  END
$$$$

     RDKit          3D

 15 15  0  0  0  0  0  0  0  0999 V2000
   43.7420   35.5390   27.4920 S   0  0  0  0  0  0  0  0  0  0  0  0
   41.1320   34.9660   27.4970 N   0  0  0  0  0  0  0  0  0  0  0  0
   42.4720   36.7850   25.4910 C   0  0  0  0  0  0  0  0  0  0  0  0
   43.5900   35.7570   25.8540 O   0  0  0  0  0  0  0  0  0  0  0  0
   38.4260   35.7730   22.1370 O   0  0  0  0  0  0  0  0  0  0  0  0
   43.8520   34.0270   28.2030 N   0  0  0  0  0  0  0  0  0  0  0  0
   39.8490   34.4000   25.5850 O   0  0  0  0  0  0  0  0  0  0  0  0
   40.9240   36.6010   25.6270 C   0  0  0  0  0  0  0  0  0  0  0  0
   44.7180   36.4050   28.0670 O   0  0  0  0  0  0  0  0  0  0  0  0
   40.6070   35.2450   26.1820 C   0  0  0  0  0  0  0  0  0  0  0  0
   37.5190   36.3270   22.9780 C   0  0  0  0  0  0  0  0  0  0  0  0
   38.0000   37.5690   23.6790 C   0  0  0  0  0  0  0  0  0  0  0  0
   42.1160   35.8680   28.1640 C   0  0  0  0  0  0  0  0  0  0  0  0
   40.1470   36.7670   24.4140 N   0  0  0  0  0  0  0  0  0  0  0  0
   39.5410   37.8410   23.6880 C   0  0  0  0  0  0  0  0  0  0  0  0
  1  9  1  0
  1 13  1  0
  1  6  1  0
  2 13  1  0
  3  8  1  0
  3  4  1  0
  4  1  1  0
  5 11  1  0
  7 10  2  0
  8 14  1  0
  8 10  1  0
 10  2  1  0
 11 12  1  0
 12 15  1  0
 15 14  1  0
M  END
$$$$

     RDKit          3D

 16 16  0  0  0  0  0  0  0  0999 V2000
   41.0590   33.8600   29.6560 C   0  0  0  0  0  0  0  0  0  0  0  0
   40.7890   37.0110   26.7120 C   0  0  0  0  0  0  0  0  0  0  0  0
   40.5320   36.5810   24.1490 C   0  0  0  0  0  0  0  0  0  0  0  0
   42.2210   36.3980   26.9660 C   0  0  0  0  0  0  0  0  0  0  0  0
   40.6460   35.0970   24.3240 C   0  0  0  0  0  0  0  0  0  0  0  0
   43.0680   37.5490   27.7930 C   0  0  0  0  0  0  0  0  0  0  0  0
   40.2050   37.2550   25.5130 C   0  0  0  0  0  0  0  0  0  0  0  0
   43.2580   37.4590   28.9900 O   0  0  0  0  0  0  0  0  0  0  0  0
   43.5000   34.5560   28.9810 N   0  0  0  0  0  0  0  0  0  0  0  0
   39.4530   36.9010   23.3000 O   0  0  0  0  0  0  0  0  0  0  0  0
   43.5190   38.3120   26.9480 O   0  0  0  0  0  0  0  0  0  0  0  0
   42.4480   35.1630   27.9250 C   0  0  0  0  0  0  0  0  0  0  0  0
   43.9630   35.4160   25.6290 O   0  0  0  0  0  0  0  0  0  0  0  0
   42.6220   35.8790   25.5960 C   0  0  0  0  0  0  0  0  0  0  0  0
   41.1950   34.5100   28.2740 C   0  0  0  0  0  0  0  0  0  0  0  0
   41.7430   34.7040   25.2660 C   0  0  0  0  0  0  0  0  0  0  0  0
  2  4  1  0
  3 10  1  0
  3  5  1  0
  3  7  1  0
  4  6  1  0
  4 12  1  0
  5 16  1  0
  6  8  1  0
  7  2  1  0
 11  6  2  0
 12 15  1  0
 12  9  1  0
 14 13  1  0
 14  4  1  0
 15  1  1  0
 16 14  1  0
M  END
$$$$

     RDKit          3D

 16 16  0  0  0  0  0  0  0  0999 V2000
   43.3780   35.6350   28.6520 O   0  0  0  0  0  0  0  0  0  0  0  0
   39.6650   35.4450   23.6500 O   0  0  0  0  0  0  0  0  0  0  0  0
   41.9000   36.2730   28.4880 P   0  0  0  0  0  0  0  0  0  0  0  0
   41.8840   37.7370   28.8330 O   0  0  0  0  0  0  0  0  0  0  0  0
   39.5720   36.6510   24.2410 C   0  0  0  0  0  0  0  0  0  0  0  0
   41.5660   36.0140   25.6500 C   0  0  0  0  0  0  0  0  0  0  0  0
   41.0670   34.4840   24.7840 C   0  0  0  0  0  0  0  0  0  0  0  0
   41.1010   33.8900   28.7560 C   0  0  0  0  0  0  0  0  0  0  0  0
   39.5730   35.4270   29.2380 F   0  0  0  0  0  0  0  0  0  0  0  0
   40.5850   34.3640   31.5090 C   0  0  0  0  0  0  0  0  0  0  0  0
   40.8400   35.1180   29.5050 C   0  0  0  0  0  0  0  0  0  0  0  0
   40.1860   36.5840   25.5090 C   0  0  0  0  0  0  0  0  0  0  0  0
   41.2730   35.3380   30.7320 O   0  0  0  0  0  0  0  0  0  0  0  0
   41.4340   36.0130   27.0050 O   0  0  0  0  0  0  0  0  0  0  0  0
   38.9520   37.7560   23.8070 C   0  0  0  0  0  0  0  0  0  0  0  0
   41.1630   35.2890   24.7450 C   0  0  0  0  0  0  0  0  0  0  0  0
  2  5  1  0
  2 16  1  0
  3  1  2  0
  3  4  1  0
  3 11  1  0
  5 12  1  0
  6 14  1  0
  9 11  1  0
 11  8  1  0
 11 13  1  0
 12  6  1  0
 13 10  1  0
 14  3  1  0
 15  5  2  0
 16  7  2  0
 16  6  1  0
M  END
$$$$

     RDKit          3D

 18 18  0  0  0  0  0  0  0  0999 V2000
   39.6840   35.2780   22.5080 N   0  0  0  0  0  0  0  0  0  0  0  0
   41.0710   35.2360   28.4120 C   0  0  0  0  0  0  0  0  0  0  0  0
   43.7150   35.3610   29.7380 N   0  0  0  0  0  0  0  0  0  0  0  0
   41.0890   36.9350   26.7370 N   0  0  0  0  0  0  0  0  0  0  0  0
   38.9130   37.6220   23.1100 C   0  0  0  0  0  0  0  0  0  0  0  0
   43.1380   36.6650   27.8530 O   0  0  0  0  0  0  0  0  0  0  0  0
   39.2200   36.6230   22.0150 C   0  0  0  0  0  0  0  0  0  0  0  0
   39.9870   35.0320   23.8150 C   0  0  0  0  0  0  0  0  0  0  0  0
   40.0400   33.9500   24.4670 O   0  0  0  0  0  0  0  0  0  0  0  0
   35.7720   37.4470   22.7320 C   0  0  0  0  0  0  0  0  0  0  0  0
   41.6890   34.0250   28.9900 N   0  0  0  0  0  0  0  0  0  0  0  0
   40.4150   36.3360   24.5460 C   0  0  0  0  0  0  0  0  0  0  0  0
   42.8540   34.3160   29.7560 C   0  0  0  0  0  0  0  0  0  0  0  0
   37.3210   37.6720   23.1680 C   0  0  0  0  0  0  0  0  0  0  0  0
   40.7860   33.1960   29.8100 C   0  0  0  0  0  0  0  0  0  0  0  0
   39.2670   37.2290   24.4810 N   0  0  0  0  0  0  0  0  0  0  0  0
   40.8460   35.9240   25.8630 N   0  0  0  0  0  0  0  0  0  0  0  0
   41.8150   36.4810   27.9440 C   0  0  0  0  0  0  0  0  0  0  0  0
  1  8  1  0
  2 11  1  0
  3 13  1  0
  4 18  1  0
  5 14  1  0
  5 16  1  0
  6 18  2  0
  7  1  1  0
  7  5  1  0
  8  9  2  0
  8 12  1  0
 10 14  1  0
 11 13  1  0
 11 15  1  0
 12 17  1  0
 16 12  1  0
 17  4  1  0
 18  2  1  0
M  END
$$$$

     RDKit          3D

 17 19  0  0  0  0  0  0  0  0999 V2000
   41.3010   37.0370   26.4170 C   0  0  0  0  0  0  0  0  0  0  0  0
   44.1040   36.8090   27.1430 C   0  0  0  0  0  0  0  0  0  0  0  0
   45.2900   36.1470   29.2360 C   0  0  0  0  0  0  0  0  0  0  0  0
   43.0950   35.1540   28.7500 C   0  0  0  0  0  0  0  0  0  0  0  0
   40.7530   35.3890   25.0460 C   0  0  0  0  0  0  0  0  0  0  0  0
   39.6060   34.1280   23.2780 C   0  0  0  0  0  0  0  0  0  0  0  0
   46.3240   36.0350   30.1750 N   0  0  0  0  0  0  0  0  0  0  0  0
   42.0510   35.8870   26.6740 C   0  0  0  0  0  0  0  0  0  0  0  0
   40.5130   36.6460   25.4890 N   0  0  0  0  0  0  0  0  0  0  0  0
   43.0900   35.8890   27.4920 N   0  0  0  0  0  0  0  0  0  0  0  0
   45.3780   36.9650   28.0320 C   0  0  0  0  0  0  0  0  0  0  0  0
   39.5610   37.4420   24.6460 C   0  0  0  0  0  0  0  0  0  0  0  0
   40.0220   35.2680   23.9130 N   0  0  0  0  0  0  0  0  0  0  0  0
   38.4490   36.7090   22.5770 C   0  0  0  0  0  0  0  0  0  0  0  0
   41.6230   34.7430   25.9920 C   0  0  0  0  0  0  0  0  0  0  0  0
   44.3770   35.0090   29.2660 O   0  0  0  0  0  0  0  0  0  0  0  0
   39.7410   36.6060   23.3800 C   0  0  0  0  0  0  0  0  0  0  0  0
  1  8  1  0
  2 11  1  0
  3 16  1  0
  3  7  1  0
  4 16  1  0
  5  9  1  0
  5 15  1  0
  6 13  1  0
  8 15  1  0
  8 10  1  0
  9 12  1  0
  9  1  1  0
 10  2  1  0
 10  4  1  0
 11  3  1  0
 13  5  1  0
 17 14  1  0
 17 13  1  0
 17 12  1  0
M  END
$$$$

     RDKit          3D

 15 17  0  0  0  0  0  0  0  0999 V2000
   41.8390   37.2730   23.7050 O   0  0  0  0  0  0  0  0  0  0  0  0
   41.5100   35.3350   28.8890 C   0  0  0  0  0  0  0  0  0  0  0  0
   42.2310   37.5540   25.9690 C   0  0  0  0  0  0  0  0  0  0  0  0
   40.8540   36.0560   27.6280 C   0  0  0  0  0  0  0  0  0  0  0  0
   41.8070   37.3630   27.4780 C   0  0  0  0  0  0  0  0  0  0  0  0
   40.7120   35.1560   26.3280 C   0  0  0  0  0  0  0  0  0  0  0  0
   40.7140   33.8810   26.2730 O   0  0  0  0  0  0  0  0  0  0  0  0
   41.5260   36.9320   24.8020 C   0  0  0  0  0  0  0  0  0  0  0  0
   43.6880   37.8800   25.8850 O   0  0  0  0  0  0  0  0  0  0  0  0
   42.6270   34.5460   28.4710 O   0  0  0  0  0  0  0  0  0  0  0  0
   43.4950   38.0410   27.3980 P   0  0  0  0  0  0  0  0  0  0  0  0
   43.8350   39.4740   28.0370 O   0  0  0  0  0  0  0  0  0  0  0  0
   40.4310   35.8670   24.9900 C   0  0  0  0  0  0  0  0  0  0  0  0
   44.3010   37.2370   28.3070 O   0  0  0  0  0  0  0  0  0  0  0  0
   40.4680   35.0660   23.7500 O   0  0  0  0  0  0  0  0  0  0  0  0
  1  8  2  0
  3  8  1  0
  3 11  1  0
  3  5  1  0
  4  2  1  0
  5 11  1  0
  5  4  1  0
  6  4  1  0
  7  6  2  0
  8 13  1  0
  9  3  1  0
  9 11  1  0
 10  2  1  0
 11 12  1  0
 11 14  1  0
 13 15  1  0
 13  6  1  0
M  END
$$$$

     RDKit          3D

 13 14  0  0  0  0  0  0  0  0999 V2000
   41.2340   35.6730   27.4210 C   0  0  0  0  0  0  0  0  0  0  0  0
   37.8020   35.8060   26.8270 C   0  0  0  0  0  0  0  0  0  0  0  0
   40.9440   35.4030   28.5320 C   0  0  0  0  0  0  0  0  0  0  0  0
   39.7700   35.9700   28.5950 C   0  0  0  0  0  0  0  0  0  0  0  0
   37.5400   35.3190   25.5470 C   0  0  0  0  0  0  0  0  0  0  0  0
   38.5530   34.5040   24.8490 C   0  0  0  0  0  0  0  0  0  0  0  0
   42.5080   34.8510   27.2660 C   0  0  0  0  0  0  0  0  0  0  0  0
   40.0410   35.1380   26.5180 C   0  0  0  0  0  0  0  0  0  0  0  0
   39.8280   34.4810   25.3420 C   0  0  0  0  0  0  0  0  0  0  0  0
   41.7080   35.2890   29.6000 O   0  0  0  0  0  0  0  0  0  0  0  0
   42.6660   34.0660   26.0550 O   0  0  0  0  0  0  0  0  0  0  0  0
   39.0550   35.6830   27.3660 C   0  0  0  0  0  0  0  0  0  0  0  0
   39.4470   36.7180   29.5290 O   0  0  0  0  0  0  0  0  0  0  0  0
  1  7  1  0
  1  3  1  0
  2 12  1  0
  3  4  1  0
  3 10  1  0
  4 13  2  0
  5  2  2  0
  6  9  2  0
  6  5  1  0
  8 12  2  0
  8  1  1  0
  9  8  1  0
 11  7  1  0
 12  4  1  0
M  END
$$$$

     RDKit          3D

 14 15  0  0  0  0  0  0  0  0999 V2000
   39.9400   37.3990   25.4340 N   0  0  0  0  0  0  0  0  0  0  0  0
   45.6400   34.5270   29.3690 O   0  0  0  0  0  0  0  0  0  0  0  0
   42.8430   37.0120   28.6330 C   0  0  0  0  0  0  0  0  0  0  0  0
   44.0080   35.9600   28.4580 C   0  0  0  0  0  0  0  0  0  0  0  0
   43.4260   38.2660   28.6310 O   0  0  0  0  0  0  0  0  0  0  0  0
   43.2840   34.8530   27.6640 O   0  0  0  0  0  0  0  0  0  0  0  0
   40.4960   36.8380   26.4090 C   0  0  0  0  0  0  0  0  0  0  0  0
   41.8910   36.8870   27.2730 C   0  0  0  0  0  0  0  0  0  0  0  0
   41.6550   35.9420   24.3480 O   0  0  0  0  0  0  0  0  0  0  0  0
   44.9080   35.5120   29.5200 C   0  0  0  0  0  0  0  0  0  0  0  0
   45.0840   36.4900   30.4880 O   0  0  0  0  0  0  0  0  0  0  0  0
   40.4060   34.2760   25.7320 O   0  0  0  0  0  0  0  0  0  0  0  0
   42.4230   35.5430   26.6310 C   0  0  0  0  0  0  0  0  0  0  0  0
   41.2790   35.4540   25.5110 S   0  0  0  0  0  0  0  0  0  0  0  0
  2 10  2  0
  3  5  1  0
  4  3  1  0
  4 10  1  0
  6  4  1  0
  7  1  1  0
  7  8  1  0
  8  3  1  0
  9 14  2  0
 10 11  1  0
 13  8  1  0
 13  6  1  0
 14 12  2  0
 14  7  1  0
 14 13  1  0
M  END
$$$$

     RDKit          3D

  4  3  0  0  0  0  0  0  0  0999 V2000
   43.6480   35.2420   28.1350 O   0  0  0  0  0  0  0  0  0  0  0  0
   41.5480   35.6530   27.1620 C   0  0  0  0  0  0  0  0  0  0  0  0
   41.0780   36.8500   27.1520 O   0  0  0  0  0  0  0  0  0  0  0  0
   43.0340   35.5580   27.0260 C   0  0  0  0  0  0  0  0  0  0  0  0
  3  2  1  0
  4  2  1  0
  4  1  1  0
M  END
$$$$

     RDKit          3D

 11 11  0  0  0  0  0  0  0  0999 V2000
   42.5270   37.7980   27.1210 N   0  0  0  0  0  0  0  0  0  0  0  0
   42.0690   36.9830   26.0060 C   0  0  0  0  0  0  0  0  0  0  0  0
   44.2430   34.6320   29.4590 N   0  0  0  0  0  0  0  0  0  0  0  0
   42.7100   35.6790   26.3200 C   0  0  0  0  0  0  0  0  0  0  0  0
   43.2250   34.4180   28.4730 C   0  0  0  0  0  0  0  0  0  0  0  0
   43.0090   36.9540   28.0920 C   0  0  0  0  0  0  0  0  0  0  0  0
   40.5580   36.8000   26.1380 C   0  0  0  0  0  0  0  0  0  0  0  0
   43.3210   37.3460   29.2130 O   0  0  0  0  0  0  0  0  0  0  0  0
   42.8800   34.7400   25.4940 O   0  0  0  0  0  0  0  0  0  0  0  0
   43.0200   35.6730   27.6620 C   0  0  0  0  0  0  0  0  0  0  0  0
   42.4860   37.5110   24.6060 C   0  0  0  0  0  0  0  0  0  0  0  0
  1  6  1  0
  2  7  1  0
  2  4  1  0
  2  1  1  0
  4 10  1  0
  5  3  1  0
  6  8  2  0
  9  4  2  0
 10  6  1  0
 10  5  1  0
 11  2  1  0
M  END
$$$$

     RDKit          3D

 23 25  0  0  0  0  0  0  0  0999 V2000
   38.6560   34.8310   27.1290 C   0  0  0  0  0  0  0  0  0  0  0  0
   41.7410   35.0070   25.2400 C   0  0  0  0  0  0  0  0  0  0  0  0
   33.7320   33.2330   29.0450 C   0  0  0  0  0  0  0  0  0  0  0  0
   37.7860   33.8460   27.0080 C   0  0  0  0  0  0  0  0  0  0  0  0
   36.2980   33.9550   27.5170 C   0  0  0  0  0  0  0  0  0  0  0  0
   38.5440   36.0570   26.2440 C   0  0  0  0  0  0  0  0  0  0  0  0
   40.7830   35.6100   27.6490 C   0  0  0  0  0  0  0  0  0  0  0  0
   37.4820   36.7090   25.6450 C   0  0  0  0  0  0  0  0  0  0  0  0
   37.7320   37.0140   24.3520 N   0  0  0  0  0  0  0  0  0  0  0  0
   34.6850   32.2500   29.1640 C   0  0  0  0  0  0  0  0  0  0  0  0
   35.6480   34.3640   28.4000 C   0  0  0  0  0  0  0  0  0  0  0  0
   39.0600   36.4780   24.2450 C   0  0  0  0  0  0  0  0  0  0  0  0
   34.4130   30.8850   29.0730 C   0  0  0  0  0  0  0  0  0  0  0  0
   40.6000   33.5120   29.6980 I   0  0  0  0  0  0  0  0  0  0  0  0
   34.2650   34.5210   28.5580 C   0  0  0  0  0  0  0  0  0  0  0  0
   32.2210   33.0430   29.3260 C   0  0  0  0  0  0  0  0  0  0  0  0
   40.3210   36.6320   28.5540 O   0  0  0  0  0  0  0  0  0  0  0  0
   39.8340   36.3950   25.4290 N   0  0  0  0  0  0  0  0  0  0  0  0
   43.0470   35.3680   24.7580 C   0  0  0  0  0  0  0  0  0  0  0  0
   41.5640   36.2100   28.5960 N   0  0  0  0  0  0  0  0  0  0  0  0
   33.6170   35.4240   27.4830 C   0  0  0  0  0  0  0  0  0  0  0  0
   39.8610   34.4920   27.9400 C   0  0  0  0  0  0  0  0  0  0  0  0
   41.1520   36.1130   26.1760 C   0  0  0  0  0  0  0  0  0  0  0  0
  1  4  1  0
  1 22  1  0
  3 10  1  0
  3 16  1  0
  4  5  1  0
  5 11  2  3
  6  8  1  0
  6  1  1  0
  7 22  1  0
  7 17  1  0
  7 20  1  0
  9  8  1  0
 11 15  1  0
 12  9  1  0
 13 10  1  0
 15 21  1  0
 15  3  1  0
 17 20  1  0
 18 12  1  0
 18 23  1  0
 18  6  1  0
 19  2  1  0
 22 14  1  0
 23  2  1  0
 23  7  1  0
M  END
$$$$

     RDKit          3D

 16 17  0  0  0  0  0  0  0  0999 V2000
   45.0890   35.2350   29.6250 N   0  0  0  0  0  0  0  0  0  0  0  0
   44.1770   36.3120   27.6830 C   0  0  0  0  0  0  0  0  0  0  0  0
   45.5020   36.3530   26.9570 C   0  0  0  0  0  0  0  0  0  0  0  0
   39.7430   34.9630   24.6490 O   0  0  0  0  0  0  0  0  0  0  0  0
   40.5360   36.0610   26.6360 C   0  0  0  0  0  0  0  0  0  0  0  0
   45.0270   36.6890   30.1000 C   0  0  0  0  0  0  0  0  0  0  0  0
   40.2740   37.4720   26.1320 C   0  0  0  0  0  0  0  0  0  0  0  0
   42.2380   35.3410   28.5870 C   0  0  0  0  0  0  0  0  0  0  0  0
   40.5110   35.0530   25.6330 C   0  0  0  0  0  0  0  0  0  0  0  0
   43.9170   35.1370   28.5710 C   0  0  0  0  0  0  0  0  0  0  0  0
   44.1610   37.1130   28.9960 C   0  0  0  0  0  0  0  0  0  0  0  0
   39.9090   37.7360   23.6210 O   0  0  0  0  0  0  0  0  0  0  0  0
   41.2720   34.1040   25.8940 O   0  0  0  0  0  0  0  0  0  0  0  0
   39.7080   37.3240   24.7180 C   0  0  0  0  0  0  0  0  0  0  0  0
   43.0880   36.2730   26.6740 O   0  0  0  0  0  0  0  0  0  0  0  0
   41.8590   36.0550   27.3410 C   0  0  0  0  0  0  0  0  0  0  0  0
  1  6  1  0
  2  3  1  0
  2 10  1  0
  2 11  1  0
  4  9  2  0
  5  7  1  0
  9 13  1  0
  9  5  1  0
 10  8  1  0
 10  1  1  0
 11  6  1  0
 12 14  2  0
 14  7  1  0
 15 16  1  0
 15  2  1  0
 16  5  1  0
 16  8  1  0
M  END
$$$$

     RDKit          3D

 12 11  0  0  0  0  0  0  0  0999 V2000
   43.8640   38.5210   25.9150 N   0  0  0  0  0  0  0  0  0  0  0  0
   45.2560   36.3890   28.3780 O   0  0  0  0  0  0  0  0  0  0  0  0
   43.4510   36.4280   26.9410 C   0  0  0  0  0  0  0  0  0  0  0  0
   42.7200   38.6490   27.7600 O   0  0  0  0  0  0  0  0  0  0  0  0
   42.1060   36.1120   27.3880 C   0  0  0  0  0  0  0  0  0  0  0  0
   41.2090   35.1740   25.2490 C   0  0  0  0  0  0  0  0  0  0  0  0
   43.8600   34.6150   28.3870 O   0  0  0  0  0  0  0  0  0  0  0  0
   41.1080   36.3020   26.2620 C   0  0  0  0  0  0  0  0  0  0  0  0
   40.3400   34.1690   25.7860 O   0  0  0  0  0  0  0  0  0  0  0  0
   43.2680   37.9320   26.9110 C   0  0  0  0  0  0  0  0  0  0  0  0
   44.2340   35.7660   28.0290 C   0  0  0  0  0  0  0  0  0  0  0  0
   43.8330   35.7740   25.6480 C   0  0  0  0  0  0  0  0  0  0  0  0
  1 10  1  0
  3 12  1  0
  3  5  1  0
  3 11  1  0
  6  9  1  0
  6  8  1  0
  8  5  1  0
 10  3  1  0
 10  4  2  0
 11  2  2  0
 11  7  1  0
M  END
$$$$

     RDKit          3D

 10 10  0  0  0  0  0  0  0  0999 V2000
   41.4080   36.2100   28.1390 C   0  0  0  0  0  0  0  0  0  0  0  0
   44.0330   36.0080   30.0310 N   0  0  0  0  0  0  0  0  0  0  0  0
   42.7270   37.3950   28.2240 P   0  0  0  0  0  0  0  0  0  0  0  0
   40.3490   34.6590   25.5860 C   0  0  0  0  0  0  0  0  0  0  0  0
   41.9620   35.0220   27.4550 N   0  0  0  0  0  0  0  0  0  0  0  0
   41.7380   35.1370   25.9870 C   0  0  0  0  0  0  0  0  0  0  0  0
   42.8450   38.3650   29.2000 O   0  0  0  0  0  0  0  0  0  0  0  0
   42.5320   37.8790   26.8960 O   0  0  0  0  0  0  0  0  0  0  0  0
   43.9530   36.1020   28.5400 C   0  0  0  0  0  0  0  0  0  0  0  0
   43.4040   34.8610   27.8390 C   0  0  0  0  0  0  0  0  0  0  0  0
  1  3  1  0
  3  8  2  0
  3  9  1  0
  3  7  1  0
  4  6  1  0
  5 10  1  0
  5  1  1  0
  6  5  1  0
  9  2  1  0
 10  9  1  0
M  END
$$$$

     RDKit          3D

  9  8  0  0  0  0  0  0  0  0999 V2000
   41.5430   35.4340   28.7850 C   0  0  0  0  0  0  0  0  0  0  0  0
   44.3390   38.3630   28.1740 C   0  0  0  0  0  0  0  0  0  0  0  0
   42.6670   34.4960   28.7210 N   0  0  0  0  0  0  0  0  0  0  0  0
   40.5500   37.1200   27.3430 O   0  0  0  0  0  0  0  0  0  0  0  0
   41.0670   35.1720   26.4190 O   0  0  0  0  0  0  0  0  0  0  0  0
   43.2790   37.5660   27.6590 N   0  0  0  0  0  0  0  0  0  0  0  0
   43.8720   35.3420   28.6470 C   0  0  0  0  0  0  0  0  0  0  0  0
   43.7760   36.2240   27.4140 C   0  0  0  0  0  0  0  0  0  0  0  0
   41.0450   35.9560   27.4030 C   0  0  0  0  0  0  0  0  0  0  0  0
  3  1  1  0
  4  9  1  0
  5  9  2  0
  6  2  1  0
  7  3  1  0
  8  6  1  0
  8  7  1  0
  9  1  1  0
M  END
$$$$

     RDKit          3D

 17 17  0  0  0  0  0  0  0  0999 V2000
   40.9910   34.7600   26.5930 C   0  0  0  0  0  0  0  0  0  0  0  0
   40.7120   37.0590   26.9750 C   0  0  0  0  0  0  0  0  0  0  0  0
   44.1240   34.2380   24.7410 Br  0  0  0  0  0  0  0  0  0  0  0  0
   42.5250   35.8360   27.7330 C   0  0  0  0  0  0  0  0  0  0  0  0
   43.1490   38.0420   27.6620 C   0  0  0  0  0  0  0  0  0  0  0  0
   42.2300   36.9930   26.9720 C   0  0  0  0  0  0  0  0  0  0  0  0
   43.6380   36.7450   28.3300 C   0  0  0  0  0  0  0  0  0  0  0  0
   42.5920   35.4540   24.8910 C   0  0  0  0  0  0  0  0  0  0  0  0
   44.6420   35.5280   28.7990 C   0  0  0  0  0  0  0  0  0  0  0  0
   42.3840   38.0330   24.8800 O   0  0  0  0  0  0  0  0  0  0  0  0
   42.7100   39.0240   28.7590 C   0  0  0  0  0  0  0  0  0  0  0  0
   40.3860   34.7730   25.3740 O   0  0  0  0  0  0  0  0  0  0  0  0
   41.3510   35.4690   24.0810 C   0  0  0  0  0  0  0  0  0  0  0  0
   45.0140   35.6040   29.9550 O   0  0  0  0  0  0  0  0  0  0  0  0
   44.3580   38.5590   26.9320 C   0  0  0  0  0  0  0  0  0  0  0  0
   44.9840   34.7080   27.9420 O   0  0  0  0  0  0  0  0  0  0  0  0
   42.7930   36.8270   25.5540 C   0  0  0  0  0  0  0  0  0  0  0  0
  4  7  1  0
  5  7  1  0
  5 11  1  0
  6  2  1  0
  6  5  1  0
  6  4  1  0
  7  9  1  0
  8  3  1  0
  8 17  1  0
  9 14  1  0
 12  1  1  0
 13  8  1  0
 13 12  1  0
 15  5  1  0
 16  9  2  0
 17 10  1  0
 17  6  1  0
M  END
$$$$

     RDKit          3D

 21 21  0  0  0  0  0  0  0  0999 V2000
   41.9220   37.6890   24.5280 C   0  0  0  0  0  0  0  0  0  0  0  0
   39.3640   38.7900   21.7620 C   0  0  0  0  0  0  0  0  0  0  0  0
   42.2510   38.0500   25.6370 C   0  0  0  0  0  0  0  0  0  0  0  0
   38.8010   37.7690   24.5270 O   0  0  0  0  0  0  0  0  0  0  0  0
   43.2560   37.3890   27.7630 C   0  0  0  0  0  0  0  0  0  0  0  0
   43.0550   35.6350   29.2700 C   0  0  0  0  0  0  0  0  0  0  0  0
   42.8600   37.1340   26.4080 C   0  0  0  0  0  0  0  0  0  0  0  0
   39.7430   37.2210   23.8190 C   0  0  0  0  0  0  0  0  0  0  0  0
   44.3180   38.4810   27.9550 C   0  0  0  0  0  0  0  0  0  0  0  0
   42.5810   36.9110   28.7800 N   0  0  0  0  0  0  0  0  0  0  0  0
   39.2880   34.6040   23.8270 C   0  0  0  0  0  0  0  0  0  0  0  0
   40.8610   36.4260   24.7360 C   0  0  0  0  0  0  0  0  0  0  0  0
   38.1930   35.2920   23.3710 O   0  0  0  0  0  0  0  0  0  0  0  0
   42.1200   37.8330   23.2730 O   0  0  0  0  0  0  0  0  0  0  0  0
   40.0010   37.5670   22.3830 N   0  0  0  0  0  0  0  0  0  0  0  0
   43.1380   35.0170   27.8250 C   0  0  0  0  0  0  0  0  0  0  0  0
   42.3610   34.8460   29.8970 N   0  0  0  0  0  0  0  0  0  0  0  0
   41.9780   35.1430   27.0220 N   0  0  0  0  0  0  0  0  0  0  0  0
   40.0920   35.0530   25.1030 C   0  0  0  0  0  0  0  0  0  0  0  0
   44.5820   35.9080   29.7990 C   0  0  0  0  0  0  0  0  0  0  0  0
   42.4900   35.6820   25.7510 C   0  0  0  0  0  0  0  0  0  0  0  0
  1 12  1  0
  1  3  1  0
  2 15  1  0
  5  9  1  0
  5 10  1  0
  6 20  1  0
  6 17  1  0
  7  3  1  0
  7  5  1  0
  8  4  2  0
  8 12  1  0
 10  6  1  0
 11 19  1  0
 12 19  1  0
 13 11  1  0
 14  1  2  0
 15  8  1  0
 16  6  1  0
 18 16  1  0
 21  7  1  0
 21 18  1  0
M  END
$$$$
