
     RDKit          3D

  8  7  0  0  0  0  0  0  0  0999 V2000
   44.5340   40.2770   31.4730 O   0  0  0  0  0  0  0  0  0  0  0  0
   43.1950   39.5520   33.0740 O   0  0  0  0  0  0  0  0  0  0  0  0
   41.1550   39.6010   29.2000 C   0  0  0  0  0  0  0  0  0  0  0  0
   39.2590   38.6610   27.9290 S   0  0  0  0  0  0  0  0  0  0  0  0
   42.5970   39.2860   30.8580 C   0  0  0  0  0  0  0  0  0  0  0  0
   41.8330   40.3170   30.1090 C   0  0  0  0  0  0  0  0  0  0  0  0
   43.5030   39.7400   31.8870 C   0  0  0  0  0  0  0  0  0  0  0  0
   39.7350   40.0000   28.9720 C   0  0  0  0  0  0  0  0  0  0  0  0
  1  7  2  0
  3  6  1  0
  4  8  1  0
  5  7  1  0
  6  5  1  0
  7  2  1  0
  8  3  1  0
M  END
$$$$

     RDKit          3D

 18 20  0  0  0  0  0  0  0  0999 V2000
   42.7450   40.2680   27.4720 N   0  0  0  0  0  0  0  0  0  0  0  0
   41.5960   38.6420   31.0100 C   0  0  0  0  0  0  0  0  0  0  0  0
   44.5130   41.2380   28.8220 N   0  0  0  0  0  0  0  0  0  0  0  0
   41.3560   39.1590   29.5330 C   0  0  0  0  0  0  0  0  0  0  0  0
   38.2630   42.6220   28.2160 N   0  0  0  0  0  0  0  0  0  0  0  0
   40.2740   40.1000   29.8080 N   0  0  0  0  0  0  0  0  0  0  0  0
   43.4080   40.6920   29.6590 N   0  0  0  0  0  0  0  0  0  0  0  0
   39.5080   40.6980   28.8510 C   0  0  0  0  0  0  0  0  0  0  0  0
   38.4040   39.9650   28.1000 C   0  0  0  0  0  0  0  0  0  0  0  0
   41.7620   39.9360   31.8370 C   0  0  0  0  0  0  0  0  0  0  0  0
   40.2960   36.0780   31.4990 C   0  0  0  0  0  0  0  0  0  0  0  0
   42.8940   40.8370   31.1740 C   0  0  0  0  0  0  0  0  0  0  0  0
   37.2760   41.3300   27.8400 S   0  0  0  0  0  0  0  0  0  0  0  0
   44.1640   40.8890   27.4200 N   0  0  0  0  0  0  0  0  0  0  0  0
   39.3690   42.2150   28.7650 C   0  0  0  0  0  0  0  0  0  0  0  0
   40.2760   43.0060   29.2320 O   0  0  0  0  0  0  0  0  0  0  0  0
   42.5190   39.8670   28.8380 C   0  0  0  0  0  0  0  0  0  0  0  0
   40.4630   37.6770   31.5860 C   0  0  0  0  0  0  0  0  0  0  0  0
  2 18  1  0
  2 10  1  0
  3  7  1  0
  4  6  1  0
  4  2  1  0
  5 15  1  0
  7 12  1  0
  8  6  1  0
  9  8  1  0
 11 18  1  0
 12 10  1  0
 13  9  1  0
 13  5  1  0
 14  1  1  0
 14  3  1  0
 15  8  1  0
 15 16  2  0
 17  1  1  0
 17  4  1  0
 17  7  1  0
M  END
$$$$

     RDKit          3D

 17 18  0  0  0  0  0  0  0  0999 V2000
   41.5930   40.4080   30.5420 C   0  0  0  0  0  0  0  0  0  0  0  0
   41.4140   38.2870   31.7940 C   0  0  0  0  0  0  0  0  0  0  0  0
   37.6870   41.7930   28.3230 C   0  0  0  0  0  0  0  0  0  0  0  0
   39.6930   40.1100   29.1890 C   0  0  0  0  0  0  0  0  0  0  0  0
   38.9750   39.9870   27.0480 C   0  0  0  0  0  0  0  0  0  0  0  0
   44.9000   39.4430   31.6400 C   0  0  0  0  0  0  0  0  0  0  0  0
   40.9010   39.1400   30.5460 N   0  0  0  0  0  0  0  0  0  0  0  0
   39.6370   38.1280   28.4170 O   0  0  0  0  0  0  0  0  0  0  0  0
   42.8740   38.6610   31.6460 C   0  0  0  0  0  0  0  0  0  0  0  0
   44.0500   38.3170   32.0780 N   0  0  0  0  0  0  0  0  0  0  0  0
   38.5420   41.1790   27.3040 O   0  0  0  0  0  0  0  0  0  0  0  0
   38.9800   39.5740   25.5990 C   0  0  0  0  0  0  0  0  0  0  0  0
   44.1100   40.3440   30.9030 C   0  0  0  0  0  0  0  0  0  0  0  0
   40.9270   40.8180   29.2960 N   0  0  0  0  0  0  0  0  0  0  0  0
   42.8810   39.7650   30.8810 N   0  0  0  0  0  0  0  0  0  0  0  0
   39.3900   39.3590   28.2520 C   0  0  0  0  0  0  0  0  0  0  0  0
   40.8500   36.8790   31.7430 C   0  0  0  0  0  0  0  0  0  0  0  0
  1 14  1  0
  1  7  1  0
  1 15  1  0
  2 17  1  0
  4 14  1  0
  5 12  1  0
  5 11  1  0
  5 16  1  0
  6 10  1  0
  7  2  1  0
  9  2  1  0
  9 10  2  0
 11  3  1  0
 13  6  2  0
 15 13  1  0
 15  9  1  0
 16  8  2  0
 16  4  1  0
M  END
$$$$

     RDKit          3D

 10  9  0  0  0  0  0  0  0  0999 V2000
   40.1040   40.0980   30.2440 O   0  0  0  0  0  0  0  0  0  0  0  0
   40.8070   39.4940   29.4530 C   0  0  0  0  0  0  0  0  0  0  0  0
   40.3900   39.2910   28.0730 C   0  0  0  0  0  0  0  0  0  0  0  0
   42.5920   41.6930   31.4790 O   0  0  0  0  0  0  0  0  0  0  0  0
   42.3790   40.6410   32.4190 C   0  0  0  0  0  0  0  0  0  0  0  0
   41.0930   40.1860   27.3150 O   0  0  0  0  0  0  0  0  0  0  0  0
   39.4740   38.4440   27.6850 O   0  0  0  0  0  0  0  0  0  0  0  0
   43.1710   39.4670   31.9880 N   0  0  0  0  0  0  0  0  0  0  0  0
   42.8280   38.7260   30.8590 C   0  0  0  0  0  0  0  0  0  0  0  0
   42.2600   39.3330   29.6730 O   0  0  0  0  0  0  0  0  0  0  0  0
  2 10  1  0
  2  1  2  0
  3  2  1  0
  4  5  1  0
  6  3  2  0
  7  3  1  0
  8  5  1  0
  9  8  1  0
 10  9  1  0
M  END
$$$$

     RDKit          3D

 10 10  0  0  0  0  0  0  0  0999 V2000
   40.4520   42.4390   29.6620 C   0  0  0  0  0  0  0  0  0  0  0  0
   39.5880   39.7980   30.1290 N   0  0  0  0  0  0  0  0  0  0  0  0
   44.0750   39.1300   32.0110 C   0  0  0  0  0  0  0  0  0  0  0  0
   42.8710   38.4590   32.1240 C   0  0  0  0  0  0  0  0  0  0  0  0
   41.9700   39.6930   30.3040 C   0  0  0  0  0  0  0  0  0  0  0  0
   40.8160   39.9240   29.3620 C   0  0  0  0  0  0  0  0  0  0  0  0
   44.2560   40.0930   31.0020 C   0  0  0  0  0  0  0  0  0  0  0  0
   43.1690   40.4000   30.1340 C   0  0  0  0  0  0  0  0  0  0  0  0
   41.8870   38.7170   31.2760 N   0  0  0  0  0  0  0  0  0  0  0  0
   40.8340   41.3010   28.6830 C   0  0  0  0  0  0  0  0  0  0  0  0
  3  4  1  0
  5  9  1  0
  6  2  1  0
  6  5  1  0
  7  3  2  0
  8  5  2  0
  8  7  1  0
  9  4  2  0
 10  6  1  0
 10  1  1  0
M  END
$$$$

     RDKit          3D

 13 13  0  0  0  0  0  0  0  0999 V2000
   41.9090   37.4600   31.8930 O   0  0  0  0  0  0  0  0  0  0  0  0
   39.9310   41.1450   28.0380 S   0  0  0  0  0  0  0  0  0  0  0  0
   38.4020   40.5110   28.1140 C   0  0  0  0  0  0  0  0  0  0  0  0
   43.6140   40.3400   31.8910 O   0  0  0  0  0  0  0  0  0  0  0  0
   41.7470   38.7800   32.4110 C   0  0  0  0  0  0  0  0  0  0  0  0
   42.1450   40.9690   29.4560 C   0  0  0  0  0  0  0  0  0  0  0  0
   42.6070   40.5470   30.8450 C   0  0  0  0  0  0  0  0  0  0  0  0
   40.6310   40.5840   29.4300 C   0  0  0  0  0  0  0  0  0  0  0  0
   42.8790   40.0920   28.5440 O   0  0  0  0  0  0  0  0  0  0  0  0
   39.8640   42.5840   28.2900 O   0  0  0  0  0  0  0  0  0  0  0  0
   40.6720   39.3180   30.1100 O   0  0  0  0  0  0  0  0  0  0  0  0
   41.3950   39.7820   31.3600 C   0  0  0  0  0  0  0  0  0  0  0  0
   40.6560   40.8510   26.8510 O   0  0  0  0  0  0  0  0  0  0  0  0
  1  5  1  0
  2  3  1  0
  2 10  2  0
  6  9  1  0
  6  7  1  0
  7 12  1  0
  7  4  1  0
  8  2  1  0
  8  6  1  0
  8 11  1  0
 11 12  1  0
 12  5  1  0
 13  2  2  0
M  END
$$$$

     RDKit          3D

 12 12  0  0  0  0  0  0  0  0999 V2000
   40.0520   38.0080   29.8770 O   0  0  0  0  0  0  0  0  0  0  0  0
   41.8650   40.1270   31.8710 O   0  0  0  0  0  0  0  0  0  0  0  0
   42.3680   41.5510   29.1920 O   0  0  0  0  0  0  0  0  0  0  0  0
   42.0160   39.4210   30.7690 C   0  0  0  0  0  0  0  0  0  0  0  0
   41.0060   37.8630   31.0630 S   0  0  0  0  0  0  0  0  0  0  0  0
   40.0900   40.6550   29.7070 C   0  0  0  0  0  0  0  0  0  0  0  0
   41.6360   40.4250   29.4880 C   0  0  0  0  0  0  0  0  0  0  0  0
   43.3370   39.1190   30.4260 O   0  0  0  0  0  0  0  0  0  0  0  0
   39.3270   41.8430   28.8300 O   0  0  0  0  0  0  0  0  0  0  0  0
   39.4730   39.1930   29.1660 C   0  0  0  0  0  0  0  0  0  0  0  0
   39.2810   39.0520   27.6770 O   0  0  0  0  0  0  0  0  0  0  0  0
   41.1460   37.4080   32.1570 O   0  0  0  0  0  0  0  0  0  0  0  0
  1  5  1  0
  4  5  1  0
  4  2  1  0
  5 12  1  0
  6  9  1  0
  7  3  1  0
  7  6  1  0
  7  4  1  0
  8  4  1  0
 10  6  1  0
 10  1  1  0
 11 10  2  0
M  END
$$$$

     RDKit          3D

 17 18  0  0  0  0  0  0  0  0999 V2000
   42.9800   41.2770   29.9880 O   0  0  0  0  0  0  0  0  0  0  0  0
   39.7480   38.5090   27.8970 O   0  0  0  0  0  0  0  0  0  0  0  0
   41.8920   37.8510   31.6400 N   0  0  0  0  0  0  0  0  0  0  0  0
   40.1270   40.8500   27.9150 N   0  0  0  0  0  0  0  0  0  0  0  0
   42.0100   42.2070   29.5740 C   0  0  0  0  0  0  0  0  0  0  0  0
   40.0960   41.1100   30.3720 O   0  0  0  0  0  0  0  0  0  0  0  0
   38.5980   39.6420   26.1230 C   0  0  0  0  0  0  0  0  0  0  0  0
   41.0080   41.2120   29.1570 C   0  0  0  0  0  0  0  0  0  0  0  0
   44.4650   38.2410   32.9950 O   0  0  0  0  0  0  0  0  0  0  0  0
   38.2750   38.5230   25.5210 N   0  0  0  0  0  0  0  0  0  0  0  0
   42.4960   39.2260   31.8520 C   0  0  0  0  0  0  0  0  0  0  0  0
   42.2630   40.2130   30.6330 C   0  0  0  0  0  0  0  0  0  0  0  0
   40.9150   40.0330   29.9550 C   0  0  0  0  0  0  0  0  0  0  0  0
   39.5260   39.5960   27.3480 C   0  0  0  0  0  0  0  0  0  0  0  0
   44.9320   40.4720   32.1250 O   0  0  0  0  0  0  0  0  0  0  0  0
   38.2160   40.7390   25.8390 O   0  0  0  0  0  0  0  0  0  0  0  0
   44.2280   39.1120   31.8940 S   0  0  0  0  0  0  0  0  0  0  0  0
  1 12  1  0
  5  1  1  0
  7 14  1  0
  8  4  1  0
  8  5  1  0
  8 13  1  0
  8  6  1  0
 10  7  1  0
 11  3  1  0
 11 17  1  0
 12 11  1  0
 13  6  1  0
 13 12  1  0
 14  2  2  0
 14  4  1  0
 16  7  2  0
 17 15  1  0
 17  9  1  0
M  END
$$$$

     RDKit          3D

 19 19  0  0  0  0  0  0  0  0999 V2000
   41.1020   39.7220   29.9580 C   0  0  0  0  0  0  0  0  0  0  0  0
   41.4140   38.3730   32.0450 C   0  0  0  0  0  0  0  0  0  0  0  0
   40.8010   42.0460   29.3620 C   0  0  0  0  0  0  0  0  0  0  0  0
   42.5770   39.7750   29.8990 O   0  0  0  0  0  0  0  0  0  0  0  0
   40.3830   40.6970   29.2520 C   0  0  0  0  0  0  0  0  0  0  0  0
   40.2800   43.2520   28.5660 C   0  0  0  0  0  0  0  0  0  0  0  0
   39.1420   40.2830   28.4460 C   0  0  0  0  0  0  0  0  0  0  0  0
   35.5710   43.4440   26.7370 C   0  0  0  0  0  0  0  0  0  0  0  0
   38.9460   38.6910   26.4370 C   0  0  0  0  0  0  0  0  0  0  0  0
   39.4810   38.8570   27.8670 C   0  0  0  0  0  0  0  0  0  0  0  0
   36.7080   40.6810   26.5490 O   0  0  0  0  0  0  0  0  0  0  0  0
   40.5910   38.6950   30.7800 C   0  0  0  0  0  0  0  0  0  0  0  0
   36.5340   42.6980   27.5570 O   0  0  0  0  0  0  0  0  0  0  0  0
   38.8420   42.8820   28.3070 C   0  0  0  0  0  0  0  0  0  0  0  0
   39.6050   39.4640   25.5290 O   0  0  0  0  0  0  0  0  0  0  0  0
   41.7290   42.3680   30.1310 O   0  0  0  0  0  0  0  0  0  0  0  0
   38.7740   41.5660   27.5460 C   0  0  0  0  0  0  0  0  0  0  0  0
   41.9690   37.0180   31.8820 N   0  0  0  0  0  0  0  0  0  0  0  0
   37.4340   41.8630   26.8290 C   0  0  0  0  0  0  0  0  0  0  0  0
  1  4  1  0
  1 12  1  0
  3 16  2  0
  5  3  1  0
  5  1  1  0
  6  3  1  0
  7 10  1  0
  7  5  1  0
  8 13  1  0
  9 10  1  0
 12  2  1  0
 14  6  1  0
 15  9  1  0
 17 19  1  0
 17 14  1  0
 17  7  1  0
 18  2  1  0
 19 11  1  0
 19 13  1  0
M  END
$$$$

     RDKit          3D

 14 14  0  0  0  0  0  0  0  0999 V2000
   41.3800   38.9350   31.3560 N   0  0  0  0  0  0  0  0  0  0  0  0
   39.7530   42.6390   28.5300 C   0  0  0  0  0  0  0  0  0  0  0  0
   39.4950   38.2920   29.4660 C   0  0  0  0  0  0  0  0  0  0  0  0
   39.4340   41.3020   27.9090 O   0  0  0  0  0  0  0  0  0  0  0  0
   38.9230   38.9610   25.5810 O   0  0  0  0  0  0  0  0  0  0  0  0
   41.7770   37.5500   31.6170 C   0  0  0  0  0  0  0  0  0  0  0  0
   38.6330   39.2980   26.8490 C   0  0  0  0  0  0  0  0  0  0  0  0
   40.3240   40.2920   28.3380 C   0  0  0  0  0  0  0  0  0  0  0  0
   40.6110   35.3240   31.9240 C   0  0  0  0  0  0  0  0  0  0  0  0
   40.5530   36.7000   31.3550 C   0  0  0  0  0  0  0  0  0  0  0  0
   40.5640   39.1240   30.2830 C   0  0  0  0  0  0  0  0  0  0  0  0
   37.5840   39.9300   27.1580 O   0  0  0  0  0  0  0  0  0  0  0  0
   40.5430   40.3380   29.7390 N   0  0  0  0  0  0  0  0  0  0  0  0
   39.6050   38.9300   28.0110 C   0  0  0  0  0  0  0  0  0  0  0  0
  1  6  1  0
  3 11  1  0
  4  2  1  0
  5  7  2  0
  7 12  1  0
  8  4  1  0
  8 13  1  0
 10  6  1  0
 10  9  1  0
 11  1  1  0
 13 11  2  0
 14  7  1  0
 14  8  1  0
 14  3  1  0
M  END
$$$$

     RDKit          3D

  4  3  0  0  0  0  0  0  0  0999 V2000
   39.4930   39.8530   29.1760 C   0  0  0  0  0  0  0  0  0  0  0  0
   40.3820   40.0020   30.4810 C   0  0  0  0  0  0  0  0  0  0  0  0
   38.9180   40.8990   28.7800 C   0  0  0  0  0  0  0  0  0  0  0  0
   40.8940   38.7800   30.8290 N   0  0  0  0  0  0  0  0  0  0  0  0
  1  2  1  0
  2  4  1  0
  3  1  2  0
M  END
$$$$

     RDKit          3D

 20 22  0  0  0  0  0  0  0  0999 V2000
   34.6370   40.1110   25.3760 N   0  0  0  0  0  0  0  0  0  0  0  0
   40.2720   38.8010   30.2610 C   0  0  0  0  0  0  0  0  0  0  0  0
   42.7760   40.9430   31.7880 O   0  0  0  0  0  0  0  0  0  0  0  0
   40.0140   40.1560   29.3600 C   0  0  0  0  0  0  0  0  0  0  0  0
   38.0920   39.6250   26.6250 C   0  0  0  0  0  0  0  0  0  0  0  0
   37.1880   42.5170   28.6060 O   0  0  0  0  0  0  0  0  0  0  0  0
   42.8160   39.2820   29.7550 C   0  0  0  0  0  0  0  0  0  0  0  0
   35.9430   41.3700   27.0170 C   0  0  0  0  0  0  0  0  0  0  0  0
   41.7120   39.0490   30.8320 C   0  0  0  0  0  0  0  0  0  0  0  0
   39.0540   38.7450   26.5690 O   0  0  0  0  0  0  0  0  0  0  0  0
   37.1160   41.6020   27.7520 C   0  0  0  0  0  0  0  0  0  0  0  0
   40.9920   42.5560   29.8590 C   0  0  0  0  0  0  0  0  0  0  0  0
   42.4200   40.5860   29.0540 C   0  0  0  0  0  0  0  0  0  0  0  0
   36.9000   39.4470   25.9130 C   0  0  0  0  0  0  0  0  0  0  0  0
   35.8100   40.3020   26.1020 C   0  0  0  0  0  0  0  0  0  0  0  0
   39.5380   40.9830   28.1010 C   0  0  0  0  0  0  0  0  0  0  0  0
   42.0570   38.1830   31.8530 O   0  0  0  0  0  0  0  0  0  0  0  0
   38.2940   40.7460   27.5360 C   0  0  0  0  0  0  0  0  0  0  0  0
   41.5220   40.4750   31.2750 C   0  0  0  0  0  0  0  0  0  0  0  0
   41.2120   41.0380   29.8650 C   0  0  0  0  0  0  0  0  0  0  0  0
  1 15  1  0
  2  9  1  0
  4 16  1  0
  4 20  1  0
  4  2  1  0
  5 18  1  0
  7  9  1  0
  8 11  1  0
  9 19  1  0
  9 17  1  0
 10  5  1  0
 11  6  2  0
 13  7  1  0
 13 20  1  0
 14 15  1  0
 14  5  2  0
 15  8  2  0
 18 11  1  0
 18 16  1  0
 19  3  1  0
 20 12  1  0
 20 19  1  0
M  END
$$$$

     RDKit          3D

 20 20  0  0  0  0  0  0  0  0999 V2000
   41.0850   41.0770   27.7280 C   0  0  0  0  0  0  0  0  0  0  0  0
   38.9190   42.2940   28.4930 C   0  0  0  0  0  0  0  0  0  0  0  0
   37.0250   41.3220   25.7830 C   0  0  0  0  0  0  0  0  0  0  0  0
   39.9390   37.7940   29.8810 O   0  0  0  0  0  0  0  0  0  0  0  0
   42.0080   42.2370   30.3410 C   0  0  0  0  0  0  0  0  0  0  0  0
   37.1940   42.2840   28.3660 S   0  0  0  0  0  0  0  0  0  0  0  0
   41.5280   39.9330   31.2170 N   0  0  0  0  0  0  0  0  0  0  0  0
   38.0280   40.3730   25.8010 O   0  0  0  0  0  0  0  0  0  0  0  0
   39.9510   39.1500   29.9160 C   0  0  0  0  0  0  0  0  0  0  0  0
   37.0240   42.5440   26.6040 C   0  0  0  0  0  0  0  0  0  0  0  0
   42.6320   40.4160   31.9550 C   0  0  0  0  0  0  0  0  0  0  0  0
   41.6540   41.1330   29.2180 C   0  0  0  0  0  0  0  0  0  0  0  0
   42.1380   37.7640   32.2880 N   0  0  0  0  0  0  0  0  0  0  0  0
   39.5970   40.9290   27.8330 N   0  0  0  0  0  0  0  0  0  0  0  0
   39.4550   38.8820   26.7280 O   0  0  0  0  0  0  0  0  0  0  0  0
   40.9940   36.8100   32.0240 C   0  0  0  0  0  0  0  0  0  0  0  0
   35.8970   41.1760   24.7860 C   0  0  0  0  0  0  0  0  0  0  0  0
   39.0130   40.0370   26.7980 C   0  0  0  0  0  0  0  0  0  0  0  0
   41.3860   39.6670   29.8260 C   0  0  0  0  0  0  0  0  0  0  0  0
   39.7550   37.1860   31.2170 C   0  0  0  0  0  0  0  0  0  0  0  0
  1 14  1  0
  1 12  1  0
  3 17  1  0
  3  8  1  0
  3 10  1  0
  4  9  1  0
  4 20  1  0
  6  2  1  0
  7 11  1  0
  8 18  1  0
 10  6  1  0
 12 19  1  0
 12  5  1  0
 14  2  1  0
 15 18  2  0
 16 13  1  0
 18 14  1  0
 19  9  1  0
 19  7  1  0
 20 16  1  0
M  END
$$$$

     RDKit          3D

  5  4  0  0  0  0  0  0  0  0999 V2000
   40.2560   39.3530   29.5890 C   0  0  0  0  0  0  0  0  0  0  0  0
   40.8140   38.7880   30.9250 C   0  0  0  0  0  0  0  0  0  0  0  0
   39.5980   38.2780   28.7180 C   0  0  0  0  0  0  0  0  0  0  0  0
   42.7620   39.0200   32.3120 O   0  0  0  0  0  0  0  0  0  0  0  0
   42.0810   39.5760   31.3290 C   0  0  0  0  0  0  0  0  0  0  0  0
  1  2  1  0
  2  5  1  0
  3  1  1  0
  5  4  1  0
M  END
$$$$

     RDKit          3D

 17 19  0  0  0  0  0  0  0  0999 V2000
   42.6640   40.1480   30.6870 N   0  0  0  0  0  0  0  0  0  0  0  0
   39.5570   40.3180   28.8670 C   0  0  0  0  0  0  0  0  0  0  0  0
   42.0030   39.4600   28.1110 C   0  0  0  0  0  0  0  0  0  0  0  0
   38.7780   40.0630   27.6520 C   0  0  0  0  0  0  0  0  0  0  0  0
   45.4440   38.8130   31.1000 C   0  0  0  0  0  0  0  0  0  0  0  0
   43.2190   37.8480   32.1090 N   0  0  0  0  0  0  0  0  0  0  0  0
   40.5530   40.9840   29.8850 N   0  0  0  0  0  0  0  0  0  0  0  0
   40.1000   37.8630   29.9700 O   0  0  0  0  0  0  0  0  0  0  0  0
   43.1770   40.0780   31.8720 C   0  0  0  0  0  0  0  0  0  0  0  0
   44.3480   39.0610   32.2500 C   0  0  0  0  0  0  0  0  0  0  0  0
   41.1550   39.9880   30.5670 C   0  0  0  0  0  0  0  0  0  0  0  0
   40.7740   38.5790   30.7640 C   0  0  0  0  0  0  0  0  0  0  0  0
   43.1950   40.0500   27.8070 C   0  0  0  0  0  0  0  0  0  0  0  0
   41.6480   37.9560   31.7980 C   0  0  0  0  0  0  0  0  0  0  0  0
   42.6550   40.6520   32.7650 O   0  0  0  0  0  0  0  0  0  0  0  0
   40.9980   36.6010   32.0730 C   0  0  0  0  0  0  0  0  0  0  0  0
   40.9000   39.9800   29.0200 C   0  0  0  0  0  0  0  0  0  0  0  0
  1  9  1  0
  2  4  1  0
  2 17  1  0
  2  7  1  0
  3 17  1  0
  5 10  1  0
  6 10  1  0
  7 11  1  0
  8 12  2  0
  9 10  1  0
  9 15  2  0
 11  1  1  0
 11 12  1  0
 12 14  1  0
 13  3  2  0
 14 16  1  0
 14  6  1  0
 17  7  1  0
 17 11  1  0
M  END
$$$$

     RDKit          3D

 15 14  0  0  0  0  0  0  0  0999 V2000
   43.8700   39.7000   29.3200 O   0  0  0  0  0  0  0  0  0  0  0  0
   40.3390   36.7230   31.5100 C   0  0  0  0  0  0  0  0  0  0  0  0
   41.6080   44.6010   28.3350 O   0  0  0  0  0  0  0  0  0  0  0  0
   41.3280   41.0710   29.2670 C   0  0  0  0  0  0  0  0  0  0  0  0
   42.5750   40.2380   31.2170 C   0  0  0  0  0  0  0  0  0  0  0  0
   42.2890   41.4910   30.3820 C   0  0  0  0  0  0  0  0  0  0  0  0
   42.6140   39.2080   30.1440 C   0  0  0  0  0  0  0  0  0  0  0  0
   40.9990   42.3930   28.7240 N   0  0  0  0  0  0  0  0  0  0  0  0
   41.2520   40.2200   27.9100 C   0  0  0  0  0  0  0  0  0  0  0  0
   39.6200   38.5370   27.5710 O   0  0  0  0  0  0  0  0  0  0  0  0
   40.8580   38.9580   30.5470 C   0  0  0  0  0  0  0  0  0  0  0  0
   39.8390   39.6700   27.9360 C   0  0  0  0  0  0  0  0  0  0  0  0
   40.9380   38.1130   31.7200 N   0  0  0  0  0  0  0  0  0  0  0  0
   41.2980   43.6420   29.2870 C   0  0  0  0  0  0  0  0  0  0  0  0
   38.8860   40.4530   28.5750 N   0  0  0  0  0  0  0  0  0  0  0  0
  2 13  1  0
  3 14  1  0
  4  9  1  0
  4  6  1  0
  6  5  1  0
  7  1  1  0
  7 11  1  0
  7  5  1  0
  8  4  1  0
  8 14  1  0
  9 12  1  0
 10 12  2  0
 11 13  1  0
 12 15  1  0
M  END
$$$$

     RDKit          3D

 14 13  0  0  0  0  0  0  0  0999 V2000
   39.9770   38.7590   27.8010 O   0  0  0  0  0  0  0  0  0  0  0  0
   42.6170   40.3670   28.7140 C   0  0  0  0  0  0  0  0  0  0  0  0
   42.0050   44.0770   29.8720 C   0  0  0  0  0  0  0  0  0  0  0  0
   43.0510   41.4100   31.4360 C   0  0  0  0  0  0  0  0  0  0  0  0
   42.9650   42.6970   29.3210 S   0  0  0  0  0  0  0  0  0  0  0  0
   39.5350   39.4920   28.9340 C   0  0  0  0  0  0  0  0  0  0  0  0
   37.9850   41.5100   28.9170 C   0  0  0  0  0  0  0  0  0  0  0  0
   40.6440   39.4340   30.0830 C   0  0  0  0  0  0  0  0  0  0  0  0
   41.3180   39.0450   31.3900 O   0  0  0  0  0  0  0  0  0  0  0  0
   39.2560   40.8490   28.6010 O   0  0  0  0  0  0  0  0  0  0  0  0
   41.8860   41.5720   30.3440 C   0  0  0  0  0  0  0  0  0  0  0  0
   42.4820   41.2310   32.5900 O   0  0  0  0  0  0  0  0  0  0  0  0
   41.7970   40.4330   29.6030 C   0  0  0  0  0  0  0  0  0  0  0  0
   43.9250   40.2730   28.8000 O   0  0  0  0  0  0  0  0  0  0  0  0
  2 14  1  0
  4 12  1  0
  5  3  1  0
  5 11  1  0
  6  1  1  0
  6  8  1  0
  8  9  1  0
 10  7  1  0
 10  6  1  0
 11  4  1  0
 13  2  1  0
 13  8  1  0
 13 11  1  0
M  END
$$$$

     RDKit          3D

 13 12  0  0  0  0  0  0  0  0999 V2000
   40.0600   42.0320   27.6640 C   0  0  0  0  0  0  0  0  0  0  0  0
   43.2320   39.7700   31.3350 P   0  0  0  0  0  0  0  0  0  0  0  0
   41.0620   41.5180   26.8900 O   0  0  0  0  0  0  0  0  0  0  0  0
   42.8740   40.7970   32.3460 O   0  0  0  0  0  0  0  0  0  0  0  0
   44.0710   40.5030   30.3310 O   0  0  0  0  0  0  0  0  0  0  0  0
   43.9350   38.4820   31.7690 O   0  0  0  0  0  0  0  0  0  0  0  0
   41.7400   39.2090   30.6360 C   0  0  0  0  0  0  0  0  0  0  0  0
   40.1490   39.3500   28.7310 C   0  0  0  0  0  0  0  0  0  0  0  0
   39.1050   40.3350   29.2500 C   0  0  0  0  0  0  0  0  0  0  0  0
   38.8020   41.4610   28.2970 C   0  0  0  0  0  0  0  0  0  0  0  0
   39.7250   38.4800   27.9810 O   0  0  0  0  0  0  0  0  0  0  0  0
   41.6510   39.3260   29.1220 C   0  0  0  0  0  0  0  0  0  0  0  0
   40.2710   43.1730   28.1480 O   0  0  0  0  0  0  0  0  0  0  0  0
  1 13  1  0
  1 10  1  0
  2  6  1  0
  2  4  1  0
  3  1  2  0
  5  2  2  0
  7  2  1  0
  8 12  1  0
  8  9  1  0
 10  9  1  0
 11  8  2  0
 12  7  1  0
M  END
$$$$

     RDKit          3D

 16 15  0  0  0  0  0  0  0  0999 V2000
   37.1390   42.0490   28.7480 C   0  0  0  0  0  0  0  0  0  0  0  0
   40.6900   41.2900   29.6510 N   0  0  0  0  0  0  0  0  0  0  0  0
   39.9530   37.2250   31.3170 C   0  0  0  0  0  0  0  0  0  0  0  0
   38.8640   42.5740   27.1420 C   0  0  0  0  0  0  0  0  0  0  0  0
   39.5940   40.8800   28.7300 N   0  0  0  0  0  0  0  0  0  0  0  0
   38.3310   41.4650   27.9650 C   0  0  0  0  0  0  0  0  0  0  0  0
   41.8480   40.3840   29.5950 C   0  0  0  0  0  0  0  0  0  0  0  0
   44.1850   39.9840   30.5790 O   0  0  0  0  0  0  0  0  0  0  0  0
   39.7190   38.7080   27.6520 O   0  0  0  0  0  0  0  0  0  0  0  0
   41.1310   37.7860   32.2090 C   0  0  0  0  0  0  0  0  0  0  0  0
   43.1030   40.9570   30.3520 C   0  0  0  0  0  0  0  0  0  0  0  0
   41.5140   39.1930   30.2860 O   0  0  0  0  0  0  0  0  0  0  0  0
   37.7740   40.3460   27.0920 C   0  0  0  0  0  0  0  0  0  0  0  0
   42.3190   36.9450   31.9670 C   0  0  0  0  0  0  0  0  0  0  0  0
   41.3770   39.2330   31.7430 C   0  0  0  0  0  0  0  0  0  0  0  0
   39.9380   39.6350   28.2390 C   0  0  0  0  0  0  0  0  0  0  0  0
  3 10  1  0
  4  6  1  0
  5  2  1  0
  6  5  1  0
  6  1  1  0
  7  2  1  0
  7 12  1  0
  7 11  1  0
  9 16  2  0
 11  8  1  0
 12 15  1  0
 13  6  1  0
 14 10  1  0
 15 10  1  0
 16  5  1  0
M  END
$$$$

     RDKit          3D

 12 12  0  0  0  0  0  0  0  0999 V2000
   39.0650   41.5630   28.1690 C   0  0  0  0  0  0  0  0  0  0  0  0
   42.4970   41.5380   29.7990 O   0  0  0  0  0  0  0  0  0  0  0  0
   40.6540   39.7670   29.9360 C   0  0  0  0  0  0  0  0  0  0  0  0
   40.0730   39.1150   28.9310 C   0  0  0  0  0  0  0  0  0  0  0  0
   39.7940   38.4280   28.1290 O   0  0  0  0  0  0  0  0  0  0  0  0
   38.5090   42.6520   28.0100 C   0  0  0  0  0  0  0  0  0  0  0  0
   41.1200   39.0360   31.1640 C   0  0  0  0  0  0  0  0  0  0  0  0
   36.9080   42.8450   28.1400 C   0  0  0  0  0  0  0  0  0  0  0  0
   40.0760   40.9840   27.4450 O   0  0  0  0  0  0  0  0  0  0  0  0
   40.5160   41.7900   28.4900 C   0  0  0  0  0  0  0  0  0  0  0  0
   41.0890   41.2750   29.8430 C   0  0  0  0  0  0  0  0  0  0  0  0
   42.5460   38.7620   30.9990 O   0  0  0  0  0  0  0  0  0  0  0  0
  1  6  1  0
  1 10  1  0
  3  7  1  0
  4  3  2  0
  5  4  2  0
  6  8  1  0
  9  1  1  0
  9 10  1  0
 10 11  1  0
 11  2  1  0
 11  3  1  0
 12  7  1  0
M  END
$$$$
