
     RDKit          3D

  9  9  0  0  0  0  0  0  0  0999 V2000
   36.3440   41.3570   22.5590 C   0  0  0  0  0  0  0  0  0  0  0  0
   38.4870   40.1510   22.7540 C   0  0  0  0  0  0  0  0  0  0  0  0
   37.3090   40.7650   23.5310 C   0  0  0  0  0  0  0  0  0  0  0  0
   38.5760   40.5010   21.2770 C   0  0  0  0  0  0  0  0  0  0  0  0
   37.4000   42.4990   22.1030 C   0  0  0  0  0  0  0  0  0  0  0  0
   38.0750   41.8240   20.8570 C   0  0  0  0  0  0  0  0  0  0  0  0
   35.2780   42.3610   23.0630 C   0  0  0  0  0  0  0  0  0  0  0  0
   34.2890   42.4190   22.2400 N   0  0  0  0  0  0  0  0  0  0  0  0
   35.5190   43.1570   24.0470 O   0  0  0  0  0  0  0  0  0  0  0  0
  1  7  1  0
  1  3  1  0
  2  3  1  0
  4  2  1  0
  5  1  1  0
  6  4  1  0
  6  5  1  0
  7  9  2  0
  8  7  1  0
M  END
$$$$

     RDKit          3D

  8  8  0  0  0  0  0  0  0  0999 V2000
   37.4980   41.5310   24.0750 C   0  0  0  0  0  0  0  0  0  0  0  0
   33.6520   41.6160   22.3880 C   0  0  0  0  0  0  0  0  0  0  0  0
   36.5790   42.6590   24.4190 C   0  0  0  0  0  0  0  0  0  0  0  0
   37.4210   40.9000   22.4820 C   0  0  0  0  0  0  0  0  0  0  0  0
   35.4020   42.5870   23.7360 C   0  0  0  0  0  0  0  0  0  0  0  0
   35.0540   41.7330   22.3670 C   0  0  0  0  0  0  0  0  0  0  0  0
   36.2650   41.1600   21.6680 N   0  0  0  0  0  0  0  0  0  0  0  0
   38.3430   40.0980   22.4110 N   0  0  0  0  0  0  0  0  0  0  0  0
  1  3  1  0
  4  1  1  0
  5  3  1  0
  6  2  1  0
  6  5  1  0
  7  6  1  0
  7  4  1  0
  8  4  2  0
M  END
$$$$

     RDKit          3D

  7  6  0  0  0  0  0  0  0  0999 V2000
   35.2160   44.7890   23.6070 C   0  0  0  0  0  0  0  0  0  0  0  0
   35.4350   41.1590   21.6270 C   0  0  0  0  0  0  0  0  0  0  0  0
   37.6140   40.8970   22.5890 O   0  0  0  0  0  0  0  0  0  0  0  0
   35.6050   43.8410   22.8670 C   0  0  0  0  0  0  0  0  0  0  0  0
   36.5950   41.6110   22.3170 C   0  0  0  0  0  0  0  0  0  0  0  0
   34.4640   40.6190   21.5240 O   0  0  0  0  0  0  0  0  0  0  0  0
   36.5850   42.9700   22.5860 C   0  0  0  0  0  0  0  0  0  0  0  0
  2  5  2  0
  4  1  2  0
  5  7  1  0
  5  3  1  0
  6  2  2  0
  7  4  1  0
M  END
$$$$

     RDKit          3D

 12 13  0  0  0  0  0  0  0  0999 V2000
   34.4680   43.2000   22.2350 O   0  0  0  0  0  0  0  0  0  0  0  0
   36.7670   40.6720   25.7360 O   0  0  0  0  0  0  0  0  0  0  0  0
   37.8970   39.0740   24.7610 N   0  0  0  0  0  0  0  0  0  0  0  0
   32.7810   41.8360   23.5260 C   0  0  0  0  0  0  0  0  0  0  0  0
   33.0180   40.6690   24.5010 C   0  0  0  0  0  0  0  0  0  0  0  0
   34.5230   38.8570   25.2240 N   0  0  0  0  0  0  0  0  0  0  0  0
   35.7710   38.5310   26.0790 C   0  0  0  0  0  0  0  0  0  0  0  0
   36.7890   39.5480   25.4850 C   0  0  0  0  0  0  0  0  0  0  0  0
   34.3840   40.0170   24.1240 C   0  0  0  0  0  0  0  0  0  0  0  0
   34.1060   42.0720   22.9320 C   0  0  0  0  0  0  0  0  0  0  0  0
   35.8360   41.8180   23.3670 O   0  0  0  0  0  0  0  0  0  0  0  0
   34.9910   40.8770   22.8990 C   0  0  0  0  0  0  0  0  0  0  0  0
  3  8  1  0
  4  5  1  0
  6  7  1  0
  8  2  2  0
  8  7  1  0
  9  5  1  0
  9  6  1  0
 10  1  1  0
 10 11  1  0
 10  4  1  0
 12 10  1  0
 12 11  1  0
 12  9  1  0
M  END
$$$$

     RDKit          3D

 16 16  0  0  0  0  0  0  0  0999 V2000
   38.4740   40.8570   23.0360 C   0  0  0  0  0  0  0  0  0  0  0  0
   36.5280   42.9720   22.6250 C   0  0  0  0  0  0  0  0  0  0  0  0
   34.6800   42.8180   24.3060 O   0  0  0  0  0  0  0  0  0  0  0  0
   36.5140   41.6680   21.8610 C   0  0  0  0  0  0  0  0  0  0  0  0
   35.1290   43.3350   23.1290 C   0  0  0  0  0  0  0  0  0  0  0  0
   39.0800   39.7290   22.2700 C   0  0  0  0  0  0  0  0  0  0  0  0
   32.4760   43.6280   20.8680 O   0  0  0  0  0  0  0  0  0  0  0  0
   38.7440   42.1700   23.6400 N   0  0  0  0  0  0  0  0  0  0  0  0
   32.9730   43.2210   21.8880 C   0  0  0  0  0  0  0  0  0  0  0  0
   32.2730   42.3620   22.8790 C   0  0  0  0  0  0  0  0  0  0  0  0
   34.3080   43.5590   22.0720 N   0  0  0  0  0  0  0  0  0  0  0  0
   38.6310   44.2070   25.4060 N   0  0  0  0  0  0  0  0  0  0  0  0
   37.0070   40.6490   22.7950 C   0  0  0  0  0  0  0  0  0  0  0  0
   36.3340   44.5390   25.0320 O   0  0  0  0  0  0  0  0  0  0  0  0
   37.3010   43.8050   24.7540 C   0  0  0  0  0  0  0  0  0  0  0  0
   37.4790   42.8840   23.7310 N   0  0  0  0  0  0  0  0  0  0  0  0
  1  6  1  0
  1  8  1  0
  2  5  1  0
  2 16  1  0
  4  2  1  0
  4 13  1  0
  5  3  2  0
  7  9  2  0
  8 16  1  0
  9 11  1  0
  9 10  1  0
 11  5  1  0
 13  1  1  0
 15 14  2  0
 15 12  1  0
 16 15  1  0
M  END
$$$$

     RDKit          3D

 12 12  0  0  0  0  0  0  0  0999 V2000
   35.6680   40.5210   25.8160 C   0  0  0  0  0  0  0  0  0  0  0  0
   34.1160   41.9310   24.3540 O   0  0  0  0  0  0  0  0  0  0  0  0
   34.6780   39.6660   25.7370 O   0  0  0  0  0  0  0  0  0  0  0  0
   37.4130   42.5100   24.7870 O   0  0  0  0  0  0  0  0  0  0  0  0
   36.1150   43.0850   25.3430 P   0  0  0  0  0  0  0  0  0  0  0  0
   37.0740   40.0570   25.3390 C   0  0  0  0  0  0  0  0  0  0  0  0
   37.5380   41.0460   24.2370 C   0  0  0  0  0  0  0  0  0  0  0  0
   37.3450   38.5510   25.6610 C   0  0  0  0  0  0  0  0  0  0  0  0
   34.8970   41.8420   25.5810 C   0  0  0  0  0  0  0  0  0  0  0  0
   36.3840   43.1680   26.9290 O   0  0  0  0  0  0  0  0  0  0  0  0
   37.5990   38.3220   27.0700 O   0  0  0  0  0  0  0  0  0  0  0  0
   35.5140   43.8150   23.9380 O   0  0  0  0  0  0  0  0  0  0  0  0
  1  3  1  0
  4  5  1  0
  5 12  2  0
  5  9  1  0
  5 10  1  0
  6  8  1  0
  6  1  1  0
  7  4  1  0
  7  6  1  0
  8 11  1  0
  9  2  1  0
  9  1  1  0
M  END
$$$$

     RDKit          3D

  9  9  0  0  0  0  0  0  0  0999 V2000
   31.9980   42.5290   22.1900 N   0  0  0  0  0  0  0  0  0  0  0  0
   36.2930   42.7540   23.9380 C   0  0  0  0  0  0  0  0  0  0  0  0
   36.7710   44.1620   21.8050 C   0  0  0  0  0  0  0  0  0  0  0  0
   35.9700   43.9350   23.0610 C   0  0  0  0  0  0  0  0  0  0  0  0
   34.6050   43.8610   22.7480 O   0  0  0  0  0  0  0  0  0  0  0  0
   35.0430   41.9400   24.0190 N   0  0  0  0  0  0  0  0  0  0  0  0
   34.0390   42.8050   23.5140 C   0  0  0  0  0  0  0  0  0  0  0  0
   37.4870   42.0100   23.6820 O   0  0  0  0  0  0  0  0  0  0  0  0
   32.5330   42.4340   23.5780 C   0  0  0  0  0  0  0  0  0  0  0  0
  1  9  1  0
  2  8  1  0
  2  6  1  0
  4  3  1  0
  4  2  1  0
  5  4  1  0
  5  7  1  0
  7  9  1  0
  7  6  2  0
M  END
$$$$

     RDKit          3D

 18 19  0  0  0  0  0  0  0  0999 V2000
   38.5170   41.6040   24.1880 C   0  0  0  0  0  0  0  0  0  0  0  0
   35.8120   38.9800   23.5940 C   0  0  0  0  0  0  0  0  0  0  0  0
   41.0290   46.8830   26.6560 O   0  0  0  0  0  0  0  0  0  0  0  0
   36.7540   39.9590   23.8690 C   0  0  0  0  0  0  0  0  0  0  0  0
   38.2850   44.7720   22.8220 O   0  0  0  0  0  0  0  0  0  0  0  0
   39.5510   45.9510   24.9280 C   0  0  0  0  0  0  0  0  0  0  0  0
   39.7050   42.2000   24.0270 N   0  0  0  0  0  0  0  0  0  0  0  0
   34.4740   39.2280   23.8020 C   0  0  0  0  0  0  0  0  0  0  0  0
   39.8240   44.5340   24.6010 N   0  0  0  0  0  0  0  0  0  0  0  0
   37.3770   42.0170   24.7080 N   0  0  0  0  0  0  0  0  0  0  0  0
   36.3300   41.2110   24.4220 C   0  0  0  0  0  0  0  0  0  0  0  0
   39.9810   42.9730   22.7730 C   0  0  0  0  0  0  0  0  0  0  0  0
   40.1310   46.1050   26.3930 C   0  0  0  0  0  0  0  0  0  0  0  0
   34.0450   40.4750   24.2520 C   0  0  0  0  0  0  0  0  0  0  0  0
   34.9600   41.4860   24.5230 C   0  0  0  0  0  0  0  0  0  0  0  0
   38.4600   39.9250   23.7930 S   0  0  0  0  0  0  0  0  0  0  0  0
   39.8230   45.3270   27.5140 N   0  0  0  0  0  0  0  0  0  0  0  0
   39.1630   44.1580   23.1070 C   0  0  0  0  0  0  0  0  0  0  0  0
  1 10  2  0
  2  8  2  0
  2  4  1  0
  4 11  2  0
  5 18  2  0
  6 13  1  0
  7  1  1  0
  8 14  1  0
  9  6  1  0
 11 15  1  0
 11 10  1  0
 12 18  1  0
 12  7  1  0
 13  3  2  0
 13 17  1  0
 14 15  2  0
 16  4  1  0
 16  1  1  0
 18  9  1  0
M  END
$$$$

     RDKit          3D

 16 17  0  0  0  0  0  0  0  0999 V2000
   35.4480   38.9570   24.3010 C   0  0  0  0  0  0  0  0  0  0  0  0
   38.4090   42.3300   23.0160 C   0  0  0  0  0  0  0  0  0  0  0  0
   36.0200   41.6750   23.5450 C   0  0  0  0  0  0  0  0  0  0  0  0
   36.1920   43.0970   23.9080 O   0  0  0  0  0  0  0  0  0  0  0  0
   38.4050   41.1500   23.8800 N   0  0  0  0  0  0  0  0  0  0  0  0
   33.1880   37.7860   23.5310 O   0  0  0  0  0  0  0  0  0  0  0  0
   34.1850   39.6760   24.5080 C   0  0  0  0  0  0  0  0  0  0  0  0
   39.5020   41.6880   21.3760 I   0  0  0  0  0  0  0  0  0  0  0  0
   34.5740   41.2170   24.1990 C   0  0  0  0  0  0  0  0  0  0  0  0
   35.1580   38.7340   22.8400 N   0  0  0  0  0  0  0  0  0  0  0  0
   37.6330   43.3310   23.9080 C   0  0  0  0  0  0  0  0  0  0  0  0
   36.4590   39.9470   25.0480 C   0  0  0  0  0  0  0  0  0  0  0  0
   33.7580   38.5420   22.7000 C   0  0  0  0  0  0  0  0  0  0  0  0
   32.9830   39.5370   22.4080 O   0  0  0  0  0  0  0  0  0  0  0  0
   36.9840   40.8210   24.2670 C   0  0  0  0  0  0  0  0  0  0  0  0
   36.6270   39.9850   26.2660 O   0  0  0  0  0  0  0  0  0  0  0  0
  1 10  1  0
  1  7  1  0
  1 12  1  0
  2  8  1  0
  2  5  1  0
  2 11  1  0
  3  4  1  0
  3  9  1  0
  3 15  1  0
  4 11  1  0
  9  7  1  0
 12 16  2  0
 13 10  1  0
 13  6  1  0
 14 13  2  0
 15  5  1  0
 15 12  1  0
M  END
$$$$

     RDKit          3D

 21 22  0  0  0  0  0  0  0  0999 V2000
   39.4190   43.0390   27.2120 C   0  0  0  0  0  0  0  0  0  0  0  0
   37.6650   40.8560   25.3930 C   0  0  0  0  0  0  0  0  0  0  0  0
   35.3680   40.8920   22.4330 C   0  0  0  0  0  0  0  0  0  0  0  0
   36.6690   38.3390   26.0730 C   0  0  0  0  0  0  0  0  0  0  0  0
   36.1850   42.1490   24.3490 C   0  0  0  0  0  0  0  0  0  0  0  0
   36.0240   38.9860   25.0330 C   0  0  0  0  0  0  0  0  0  0  0  0
   36.5710   39.1910   20.1620 S   0  0  0  0  0  0  0  0  0  0  0  0
   39.3620   42.2490   24.0950 C   0  0  0  0  0  0  0  0  0  0  0  0
   34.8620   38.9340   20.9410 C   0  0  0  0  0  0  0  0  0  0  0  0
   40.5330   43.9380   26.3710 S   0  0  0  0  0  0  0  0  0  0  0  0
   35.2400   41.7760   21.5990 O   0  0  0  0  0  0  0  0  0  0  0  0
   41.8400   43.9820   26.5330 O   0  0  0  0  0  0  0  0  0  0  0  0
   38.2590   42.9700   26.2950 C   0  0  0  0  0  0  0  0  0  0  0  0
   40.2170   43.3590   24.7100 O   0  0  0  0  0  0  0  0  0  0  0  0
   39.1270   43.0890   28.5760 N   0  0  0  0  0  0  0  0  0  0  0  0
   37.7280   38.9410   26.7660 C   0  0  0  0  0  0  0  0  0  0  0  0
   34.7530   39.6220   22.1940 N   0  0  0  0  0  0  0  0  0  0  0  0
   36.5420   40.2910   24.6950 C   0  0  0  0  0  0  0  0  0  0  0  0
   38.1640   42.2100   25.0890 C   0  0  0  0  0  0  0  0  0  0  0  0
   38.2260   40.1510   26.4740 N   0  0  0  0  0  0  0  0  0  0  0  0
   35.9840   41.0730   23.6700 N   0  0  0  0  0  0  0  0  0  0  0  0
  1 15  1  0
  2 20  1  0
  3 21  1  0
  4 16  1  0
  6  4  2  0
  7  9  1  0
  8 14  1  0
  8 19  1  0
  9 17  1  0
 10 12  1  0
 10  1  1  0
 11  3  2  0
 13  1  1  0
 14 10  1  0
 17  3  1  0
 18  6  1  0
 18  2  2  0
 19  2  1  0
 19 13  1  0
 20 16  2  0
 21  5  1  0
 21 18  1  0
M  END
$$$$

     RDKit          3D

 24 25  0  0  0  0  0  0  0  0999 V2000
   37.5410   37.9540   25.5560 O   0  0  0  0  0  0  0  0  0  0  0  0
   34.3400   38.7240   21.7560 C   0  0  0  0  0  0  0  0  0  0  0  0
   37.3090   42.0480   25.0020 O   0  0  0  0  0  0  0  0  0  0  0  0
   34.7940   41.9480   24.4180 C   0  0  0  0  0  0  0  0  0  0  0  0
   35.9600   41.1210   20.8890 C   0  0  0  0  0  0  0  0  0  0  0  0
   34.6470   39.0690   20.3220 C   0  0  0  0  0  0  0  0  0  0  0  0
   36.9510   41.8480   20.8140 O   0  0  0  0  0  0  0  0  0  0  0  0
   37.8350   39.0970   26.0600 C   0  0  0  0  0  0  0  0  0  0  0  0
   36.0440   42.1900   25.7930 P   0  0  0  0  0  0  0  0  0  0  0  0
   37.0130   37.8840   26.7210 C   0  0  0  0  0  0  0  0  0  0  0  0
   34.5990   37.8270   19.5630 O   0  0  0  0  0  0  0  0  0  0  0  0
   35.6500   43.4140   26.5420 O   0  0  0  0  0  0  0  0  0  0  0  0
   32.7680   41.4360   23.6630 O   0  0  0  0  0  0  0  0  0  0  0  0
   35.8430   38.4120   26.4880 O   0  0  0  0  0  0  0  0  0  0  0  0
   35.0310   41.3090   22.0620 C   0  0  0  0  0  0  0  0  0  0  0  0
   36.1270   40.6850   26.5480 O   0  0  0  0  0  0  0  0  0  0  0  0
   32.9350   38.3970   22.0090 C   0  0  0  0  0  0  0  0  0  0  0  0
   33.2760   37.5170   23.1940 C   0  0  0  0  0  0  0  0  0  0  0  0
   36.7870   39.5250   19.2480 O   0  0  0  0  0  0  0  0  0  0  0  0
   35.5510   42.1070   23.1610 O   0  0  0  0  0  0  0  0  0  0  0  0
   37.3240   40.0830   26.1770 C   0  0  0  0  0  0  0  0  0  0  0  0
   33.6180   41.5860   24.7620 C   0  0  0  0  0  0  0  0  0  0  0  0
   34.5830   39.9910   22.4370 O   0  0  0  0  0  0  0  0  0  0  0  0
   36.0400   39.6810   20.4140 C   0  0  0  0  0  0  0  0  0  0  0  0
  1  8  1  0
  1 10  1  0
  2 17  1  0
  2 23  1  0
  4 22  1  0
  4  9  1  0
  5 15  1  0
  6 11  1  0
  6 24  1  0
  6  2  1  0
  7  5  2  0
  8 21  1  0
  8 10  1  0
  9  3  2  0
  9 12  1  0
  9 16  1  0
 10 14  1  0
 13 22  1  0
 15 23  1  0
 15 20  1  0
 17 18  1  0
 20  4  1  0
 21 16  1  0
 24 19  1  0
 24  5  1  0
M  END
$$$$

     RDKit          3D

  9  9  0  0  0  0  0  0  0  0999 V2000
   37.2400   39.6040   22.7800 C   0  0  0  0  0  0  0  0  0  0  0  0
   36.3240   40.3780   22.0870 C   0  0  0  0  0  0  0  0  0  0  0  0
   37.4970   39.9120   24.0960 C   0  0  0  0  0  0  0  0  0  0  0  0
   36.0340   43.3760   25.6820 O   0  0  0  0  0  0  0  0  0  0  0  0
   35.8190   41.5340   22.6860 C   0  0  0  0  0  0  0  0  0  0  0  0
   34.6790   43.4300   23.7280 O   0  0  0  0  0  0  0  0  0  0  0  0
   35.7370   43.0610   24.4680 N   0  0  0  0  0  0  0  0  0  0  0  0
   36.2050   41.8950   23.9510 C   0  0  0  0  0  0  0  0  0  0  0  0
   37.0520   41.0780   24.6700 C   0  0  0  0  0  0  0  0  0  0  0  0
  1  3  1  0
  2  5  1  0
  2  1  2  0
  3  9  2  0
  5  8  2  0
  6  7  2  0
  7  4  2  0
  8  7  1  0
  8  9  1  0
M  END
$$$$

     RDKit          3D

  8  8  0  0  0  0  0  0  0  0999 V2000
   36.9290   42.5430   24.0500 C   0  0  0  0  0  0  0  0  0  0  0  0
   35.8140   42.2920   23.2610 C   0  0  0  0  0  0  0  0  0  0  0  0
   35.7470   41.1620   22.4600 C   0  0  0  0  0  0  0  0  0  0  0  0
   37.9350   40.5800   23.1020 C   0  0  0  0  0  0  0  0  0  0  0  0
   37.9980   41.6750   23.9620 C   0  0  0  0  0  0  0  0  0  0  0  0
   36.7970   40.3240   22.3370 C   0  0  0  0  0  0  0  0  0  0  0  0
   34.7410   43.1830   23.2840 O   0  0  0  0  0  0  0  0  0  0  0  0
   34.5090   40.9110   21.5420 N   0  0  0  0  0  0  0  0  0  0  0  0
  2  7  1  0
  2  1  2  0
  3  2  1  0
  4  5  2  0
  5  1  1  0
  6  3  2  0
  6  4  1  0
  8  3  1  0
M  END
$$$$

     RDKit          3D

  6  5  0  0  0  0  0  0  0  0999 V2000
   36.5190   41.8010   24.6500 O   0  0  0  0  0  0  0  0  0  0  0  0
   35.8910   40.9560   22.8710 C   0  0  0  0  0  0  0  0  0  0  0  0
   38.3320   40.5890   21.9100 O   0  0  0  0  0  0  0  0  0  0  0  0
   37.7120   39.9160   22.8330 C   0  0  0  0  0  0  0  0  0  0  0  0
   35.3960   39.7590   22.3260 O   0  0  0  0  0  0  0  0  0  0  0  0
   36.8070   40.9820   23.5310 C   0  0  0  0  0  0  0  0  0  0  0  0
  2  6  1  0
  3  4  1  0
  4  6  1  0
  5  2  1  0
  6  1  1  0
M  END
$$$$

     RDKit          3D

 10 10  0  0  0  0  0  0  0  0999 V2000
   33.5860   38.0580   23.9000 C   0  0  0  0  0  0  0  0  0  0  0  0
   34.4330   41.5340   24.2260 C   0  0  0  0  0  0  0  0  0  0  0  0
   36.2850   43.0310   24.2840 N   0  0  0  0  0  0  0  0  0  0  0  0
   35.3220   40.3710   24.0300 C   0  0  0  0  0  0  0  0  0  0  0  0
   34.6410   39.0960   23.4210 C   0  0  0  0  0  0  0  0  0  0  0  0
   35.1060   38.9490   22.5250 O   0  0  0  0  0  0  0  0  0  0  0  0
   35.1370   42.5160   25.1310 C   0  0  0  0  0  0  0  0  0  0  0  0
   37.3380   41.9440   24.1790 C   0  0  0  0  0  0  0  0  0  0  0  0
   36.7670   40.5110   23.8240 C   0  0  0  0  0  0  0  0  0  0  0  0
   37.5860   39.7440   23.2450 O   0  0  0  0  0  0  0  0  0  0  0  0
  2  7  1  0
  3  7  1  0
  4  5  1  0
  4  2  1  0
  5  1  1  0
  6  5  2  0
  8  3  1  0
  9  4  1  0
  9  8  1  0
 10  9  2  0
M  END
$$$$

     RDKit          3D

 18 19  0  0  0  0  0  0  0  0999 V2000
   36.7880   40.9460   22.5490 C   0  0  0  0  0  0  0  0  0  0  0  0
   33.7780   38.3070   21.4000 C   0  0  0  0  0  0  0  0  0  0  0  0
   38.7680   42.2030   23.3340 O   0  0  0  0  0  0  0  0  0  0  0  0
   38.2500   41.5140   22.2490 C   0  0  0  0  0  0  0  0  0  0  0  0
   34.5880   39.8020   22.9520 C   0  0  0  0  0  0  0  0  0  0  0  0
   36.2540   41.8140   23.6870 C   0  0  0  0  0  0  0  0  0  0  0  0
   33.4190   37.6070   22.5340 C   0  0  0  0  0  0  0  0  0  0  0  0
   34.4180   41.2900   23.5000 C   0  0  0  0  0  0  0  0  0  0  0  0
   37.7570   43.5070   25.1990 O   0  0  0  0  0  0  0  0  0  0  0  0
   37.5090   43.2180   23.8940 P   0  0  0  0  0  0  0  0  0  0  0  0
   39.5810   42.2110   20.9550 S   0  0  0  0  0  0  0  0  0  0  0  0
   32.1990   39.0300   23.6370 C   0  0  0  0  0  0  0  0  0  0  0  0
   33.7650   41.9860   24.4470 O   0  0  0  0  0  0  0  0  0  0  0  0
   37.2410   44.1770   22.8590 O   0  0  0  0  0  0  0  0  0  0  0  0
   33.3200   36.6670   23.1240 O   0  0  0  0  0  0  0  0  0  0  0  0
   37.3300   39.8600   23.0410 O   0  0  0  0  0  0  0  0  0  0  0  0
   33.5730   38.7470   23.5850 C   0  0  0  0  0  0  0  0  0  0  0  0
   34.1510   39.7650   21.4190 O   0  0  0  0  0  0  0  0  0  0  0  0
  1 16  1  0
  1  6  1  0
  2 18  1  0
  2  7  1  0
  3 10  1  0
  4 11  1  0
  4  1  1  0
  4  3  1  0
  5  8  1  0
  5 17  1  0
  6  8  1  0
  6 10  1  0
  7 15  2  0
  7 17  1  0
  8 13  1  0
 10 14  2  0
 10  9  1  0
 17 12  1  0
 18  5  1  0
M  END
$$$$

     RDKit          3D

 25 27  0  0  0  0  0  0  0  0999 V2000
   35.5480   40.2520   24.2430 N   0  0  0  0  0  0  0  0  0  0  0  0
   34.9470   39.3910   22.2330 C   0  0  0  0  0  0  0  0  0  0  0  0
   42.1420   43.3810   23.4540 O   0  0  0  0  0  0  0  0  0  0  0  0
   39.1130   42.1160   21.6950 C   0  0  0  0  0  0  0  0  0  0  0  0
   36.7200   41.9670   25.3220 O   0  0  0  0  0  0  0  0  0  0  0  0
   36.9210   41.0840   22.2380 C   0  0  0  0  0  0  0  0  0  0  0  0
   33.2770   37.7770   23.1160 C   0  0  0  0  0  0  0  0  0  0  0  0
   35.9450   40.2370   22.7930 C   0  0  0  0  0  0  0  0  0  0  0  0
   38.1680   42.2770   20.7110 N   0  0  0  0  0  0  0  0  0  0  0  0
   34.8310   39.0140   24.5650 C   0  0  0  0  0  0  0  0  0  0  0  0
   38.4440   41.1160   22.5790 C   0  0  0  0  0  0  0  0  0  0  0  0
   35.5280   40.4310   26.3660 O   0  0  0  0  0  0  0  0  0  0  0  0
   39.7080   44.0650   23.4820 O   0  0  0  0  0  0  0  0  0  0  0  0
   37.8670   39.6790   25.9120 N   0  0  0  0  0  0  0  0  0  0  0  0
   39.2530   40.2890   23.2920 O   0  0  0  0  0  0  0  0  0  0  0  0
   35.1230   38.6980   20.8960 C   0  0  0  0  0  0  0  0  0  0  0  0
   35.7960   38.3700   25.6020 C   0  0  0  0  0  0  0  0  0  0  0  0
   34.2350   38.8220   23.1940 C   0  0  0  0  0  0  0  0  0  0  0  0
   37.0150   41.6900   20.9840 C   0  0  0  0  0  0  0  0  0  0  0  0
   36.5450   39.4020   26.4310 C   0  0  0  0  0  0  0  0  0  0  0  0
   40.6320   42.0380   24.4910 O   0  0  0  0  0  0  0  0  0  0  0  0
   40.7180   42.9670   23.4000 S   0  0  0  0  0  0  0  0  0  0  0  0
   32.5050   36.9270   22.9690 N   0  0  0  0  0  0  0  0  0  0  0  0
   40.5240   42.6030   21.9020 O   0  0  0  0  0  0  0  0  0  0  0  0
   35.8950   40.9880   25.2390 C   0  0  0  0  0  0  0  0  0  0  0  0
  1 10  1  0
  1 25  1  0
  2 16  1  0
  2  8  1  0
  2 18  1  0
  4 24  1  0
  4 11  1  0
  6 11  1  0
  8  6  1  0
  8  1  1  0
  9 19  1  0
  9  4  2  0
 10 17  1  0
 11 15  1  0
 12 20  1  0
 17 20  1  0
 18  7  1  0
 18 10  1  0
 19  6  2  0
 20 14  1  0
 22  3  1  0
 22 13  1  0
 22 21  1  0
 23  7  3  0
 24 22  1  0
 25  5  2  0
 25 12  1  0
M  END
$$$$

     RDKit          3D

  6  5  0  0  0  0  0  0  0  0999 V2000
   34.1990   41.6250   21.2340 O   0  0  0  0  0  0  0  0  0  0  0  0
   35.3380   41.9640   21.1890 C   0  0  0  0  0  0  0  0  0  0  0  0
   36.0680   41.1800   23.1600 C   0  0  0  0  0  0  0  0  0  0  0  0
   36.1920   42.9370   20.7320 O   0  0  0  0  0  0  0  0  0  0  0  0
   35.6950   42.3820   23.4430 N   0  0  0  0  0  0  0  0  0  0  0  0
   36.1750   40.8660   21.5710 C   0  0  0  0  0  0  0  0  0  0  0  0
  2  1  1  0
  2  6  1  0
  3  5  1  0
  4  2  2  0
  6  3  1  0
M  END
$$$$

     RDKit          3D

 21 21  0  0  0  0  0  0  0  0999 V2000
   36.7570   41.6440   26.5160 C   0  0  0  0  0  0  0  0  0  0  0  0
   41.4420   39.9420   21.4530 C   0  0  0  0  0  0  0  0  0  0  0  0
   38.4040   41.4520   25.0140 C   0  0  0  0  0  0  0  0  0  0  0  0
   37.2640   40.6740   24.4660 N   0  0  0  0  0  0  0  0  0  0  0  0
   39.2200   40.2760   23.4150 C   0  0  0  0  0  0  0  0  0  0  0  0
   39.1410   41.6590   23.9860 C   0  0  0  0  0  0  0  0  0  0  0  0
   39.4860   44.4530   24.9170 O   0  0  0  0  0  0  0  0  0  0  0  0
   34.0760   39.5990   25.6110 O   0  0  0  0  0  0  0  0  0  0  0  0
   35.4180   39.4960   25.7860 C   0  0  0  0  0  0  0  0  0  0  0  0
   37.0780   37.6290   26.5590 C   0  0  0  0  0  0  0  0  0  0  0  0
   34.5810   38.9000   22.2460 C   0  0  0  0  0  0  0  0  0  0  0  0
   35.6320   39.7180   22.6650 O   0  0  0  0  0  0  0  0  0  0  0  0
   38.1200   41.9120   26.3720 C   0  0  0  0  0  0  0  0  0  0  0  0
   40.1340   43.9090   23.0610 O   0  0  0  0  0  0  0  0  0  0  0  0
   40.1400   43.2860   24.2270 P   0  0  0  0  0  0  0  0  0  0  0  0
   36.2910   40.7040   25.5400 C   0  0  0  0  0  0  0  0  0  0  0  0
   34.9710   37.6970   24.9010 N   0  0  0  0  0  0  0  0  0  0  0  0
   36.8230   39.9940   22.9760 C   0  0  0  0  0  0  0  0  0  0  0  0
   40.1680   40.5860   22.0920 C   0  0  0  0  0  0  0  0  0  0  0  0
   36.2290   38.2900   25.3660 C   0  0  0  0  0  0  0  0  0  0  0  0
   41.4270   42.6990   24.7540 O   0  0  0  0  0  0  0  0  0  0  0  0
  2 19  1  0
  3  6  1  0
  3 13  1  0
  4  3  1  0
  4 16  1  0
  6  5  1  0
  6 15  1  0
  9  8  1  0
 11 12  1  0
 12 18  1  0
 13  1  1  0
 14 15  2  0
 15 21  1  0
 15  7  1  0
 16  9  1  0
 16  1  1  0
 17 20  1  0
 18  4  1  0
 19  5  1  0
 20  9  1  0
 20 10  1  0
M  END
$$$$

     RDKit          3D

  7  6  0  0  0  0  0  0  0  0999 V2000
   36.8240   39.9730   23.7300 C   0  0  0  0  0  0  0  0  0  0  0  0
   37.7490   40.2980   21.5350 O   0  0  0  0  0  0  0  0  0  0  0  0
   36.8660   41.3880   24.2990 C   0  0  0  0  0  0  0  0  0  0  0  0
   36.5310   40.2710   22.2960 C   0  0  0  0  0  0  0  0  0  0  0  0
   35.4320   41.9350   24.3000 C   0  0  0  0  0  0  0  0  0  0  0  0
   37.7360   42.3840   23.6870 O   0  0  0  0  0  0  0  0  0  0  0  0
   35.3100   43.1120   23.6770 O   0  0  0  0  0  0  0  0  0  0  0  0
  1  3  1  0
  2  4  1  0
  3  6  1  0
  3  5  1  0
  4  1  1  0
  7  5  1  0
M  END
$$$$
