
     RDKit          3D

 10 10  0  0  0  0  0  0  0  0999 V2000
   39.8620   39.0660   23.0940 N   0  0  0  0  0  0  0  0  0  0  0  0
   38.5830   41.0390   24.8890 O   0  0  0  0  0  0  0  0  0  0  0  0
   37.6810   39.9750   23.1210 C   0  0  0  0  0  0  0  0  0  0  0  0
   36.6070   40.4620   21.2030 C   0  0  0  0  0  0  0  0  0  0  0  0
   38.7870   39.4450   21.2330 C   0  0  0  0  0  0  0  0  0  0  0  0
   37.7240   39.9780   24.6160 C   0  0  0  0  0  0  0  0  0  0  0  0
   39.7070   38.6490   20.4360 C   0  0  0  0  0  0  0  0  0  0  0  0
   38.8180   39.4950   22.5590 C   0  0  0  0  0  0  0  0  0  0  0  0
   36.5070   40.3710   22.5220 C   0  0  0  0  0  0  0  0  0  0  0  0
   37.4620   39.6280   20.7810 N   0  0  0  0  0  0  0  0  0  0  0  0
  3  6  1  0
  4  9  1  0
  5  7  1  0
  5  8  1  0
  6  2  1  0
  8  1  2  0
  8  3  1  0
  9  3  1  0
 10  4  1  0
 10  5  1  0
M  END
$$$$

     RDKit          3D

 18 19  0  0  0  0  0  0  0  0999 V2000
   36.3120   37.6960   22.7210 C   0  0  0  0  0  0  0  0  0  0  0  0
   35.2730   36.7830   20.7220 C   0  0  0  0  0  0  0  0  0  0  0  0
   35.8540   36.5140   21.9830 C   0  0  0  0  0  0  0  0  0  0  0  0
   40.2400   40.3580   24.3560 C   0  0  0  0  0  0  0  0  0  0  0  0
   43.2970   38.2890   23.0830 O   0  0  0  0  0  0  0  0  0  0  0  0
   34.4610   38.2030   20.4640 N   0  0  0  0  0  0  0  0  0  0  0  0
   35.6700   39.2100   22.5630 C   0  0  0  0  0  0  0  0  0  0  0  0
   40.5370   38.8220   22.2060 C   0  0  0  0  0  0  0  0  0  0  0  0
   43.3370   38.5050   21.6760 C   0  0  0  0  0  0  0  0  0  0  0  0
   38.0690   40.6810   25.0980 O   0  0  0  0  0  0  0  0  0  0  0  0
   42.4510   39.0420   23.9320 C   0  0  0  0  0  0  0  0  0  0  0  0
   38.9830   38.8200   22.0570 O   0  0  0  0  0  0  0  0  0  0  0  0
   34.9840   39.6380   21.5000 C   0  0  0  0  0  0  0  0  0  0  0  0
   38.7230   40.2390   24.0640 C   0  0  0  0  0  0  0  0  0  0  0  0
   37.0360   38.3220   23.8170 C   0  0  0  0  0  0  0  0  0  0  0  0
   40.3620   40.5820   25.6850 O   0  0  0  0  0  0  0  0  0  0  0  0
   40.8650   39.2570   23.6390 C   0  0  0  0  0  0  0  0  0  0  0  0
   38.4720   39.0400   23.4690 C   0  0  0  0  0  0  0  0  0  0  0  0
  1 15  1  0
  2  3  1  0
  3  1  1  0
  4 16  1  0
  5 11  1  0
  6  2  1  0
  6 13  1  0
  7  1  1  0
  8 17  1  0
  9  5  1  0
 12  8  1  0
 12 18  1  0
 13  7  1  0
 14  4  1  0
 14 10  1  0
 17 11  2  3
 17  4  1  0
 18 15  1  0
 18 14  1  0
M  END
$$$$

     RDKit          3D

  9  9  0  0  0  0  0  0  0  0999 V2000
   39.8800   38.7300   22.7730 C   0  0  0  0  0  0  0  0  0  0  0  0
   39.9130   39.9570   22.1360 C   0  0  0  0  0  0  0  0  0  0  0  0
   38.9190   42.0730   24.8490 N   0  0  0  0  0  0  0  0  0  0  0  0
   38.9320   42.4520   21.7690 S   0  0  0  0  0  0  0  0  0  0  0  0
   39.0140   40.9120   24.2020 N   0  0  0  0  0  0  0  0  0  0  0  0
   39.0710   41.6270   26.1400 N   0  0  0  0  0  0  0  0  0  0  0  0
   39.1670   38.5250   23.9450 C   0  0  0  0  0  0  0  0  0  0  0  0
   38.7660   39.6190   24.6430 C   0  0  0  0  0  0  0  0  0  0  0  0
   39.2740   40.9960   22.7210 C   0  0  0  0  0  0  0  0  0  0  0  0
  1  7  1  0
  2  9  1  0
  2  1  2  0
  3  6  1  0
  4  9  2  0
  5  8  1  0
  5  3  1  0
  7  8  2  0
  9  5  1  0
M  END
$$$$

     RDKit          3D

 14 14  0  0  0  0  0  0  0  0999 V2000
   37.5180   37.7550   24.6990 C   0  0  0  0  0  0  0  0  0  0  0  0
   38.2530   37.8020   23.5640 C   0  0  0  0  0  0  0  0  0  0  0  0
   40.0040   38.9520   21.5340 O   0  0  0  0  0  0  0  0  0  0  0  0
   38.3990   41.4110   20.9310 C   0  0  0  0  0  0  0  0  0  0  0  0
   36.8710   36.5000   21.8000 C   0  0  0  0  0  0  0  0  0  0  0  0
   38.6170   41.1660   24.6960 C   0  0  0  0  0  0  0  0  0  0  0  0
   38.7600   39.1650   23.5190 C   0  0  0  0  0  0  0  0  0  0  0  0
   36.7090   35.8030   20.6750 O   0  0  0  0  0  0  0  0  0  0  0  0
   39.2550   41.1640   22.1560 C   0  0  0  0  0  0  0  0  0  0  0  0
   39.4330   39.6730   22.3650 C   0  0  0  0  0  0  0  0  0  0  0  0
   39.0140   41.8100   23.4850 C   0  0  0  0  0  0  0  0  0  0  0  0
   37.8320   37.1810   22.2660 C   0  0  0  0  0  0  0  0  0  0  0  0
   40.4730   41.7950   21.8470 C   0  0  0  0  0  0  0  0  0  0  0  0
   38.4140   39.9040   24.6680 N   0  0  0  0  0  0  0  0  0  0  0  0
  2  1  2  0
  3 10  2  0
  4  9  1  0
  5 12  2  3
  7  2  1  0
  7 14  1  0
  8  5  1  0
  9 10  1  0
  9 11  1  0
 10  7  1  0
 11  6  1  0
 12  2  1  0
 13  9  1  0
 14  6  2  0
M  END
$$$$

     RDKit          3D

 15 15  0  0  0  0  0  0  0  0999 V2000
   38.8870   37.5280   27.0370 O   0  0  0  0  0  0  0  0  0  0  0  0
   38.4310   38.3450   22.4010 O   0  0  0  0  0  0  0  0  0  0  0  0
   41.3640   39.9090   21.8020 N   0  0  0  0  0  0  0  0  0  0  0  0
   38.8920   39.5300   25.7940 C   0  0  0  0  0  0  0  0  0  0  0  0
   38.2630   39.3630   23.1430 C   0  0  0  0  0  0  0  0  0  0  0  0
   41.0390   38.9700   25.4650 C   0  0  0  0  0  0  0  0  0  0  0  0
   41.6310   39.5240   23.1580 C   0  0  0  0  0  0  0  0  0  0  0  0
   39.1400   39.5320   24.3190 C   0  0  0  0  0  0  0  0  0  0  0  0
   40.5280   39.2820   24.1870 C   0  0  0  0  0  0  0  0  0  0  0  0
   37.3660   40.2430   22.8660 O   0  0  0  0  0  0  0  0  0  0  0  0
   41.7820   39.9050   26.2270 O   0  0  0  0  0  0  0  0  0  0  0  0
   39.0520   40.1810   27.0620 O   0  0  0  0  0  0  0  0  0  0  0  0
   42.7590   38.4670   23.1170 C   0  0  0  0  0  0  0  0  0  0  0  0
   41.2980   41.2680   21.3850 C   0  0  0  0  0  0  0  0  0  0  0  0
   39.8200   38.3910   26.1850 C   0  0  0  0  0  0  0  0  0  0  0  0
  2  5  2  0
  3  7  1  0
  4 15  1  0
  4 12  1  0
  6 15  1  0
  6 11  1  0
  7 13  1  0
  8  5  1  0
  8  4  1  0
  9  7  1  0
  9  8  1  0
  9  6  1  0
 10  5  1  0
 14  3  1  0
 15  1  1  0
M  END
$$$$

     RDKit          3D

  9  9  0  0  0  0  0  0  0  0999 V2000
   39.2660   39.2300   25.1360 O   0  0  0  0  0  0  0  0  0  0  0  0
   39.0340   38.6320   22.8340 C   0  0  0  0  0  0  0  0  0  0  0  0
   38.4480   38.6010   24.2330 C   0  0  0  0  0  0  0  0  0  0  0  0
   39.1460   39.9550   22.1150 C   0  0  0  0  0  0  0  0  0  0  0  0
   38.0560   40.7360   22.6220 C   0  0  0  0  0  0  0  0  0  0  0  0
   37.1440   41.1580   21.7410 N   0  0  0  0  0  0  0  0  0  0  0  0
   38.1160   41.1710   23.9760 N   0  0  0  0  0  0  0  0  0  0  0  0
   38.8170   40.5470   25.0410 C   0  0  0  0  0  0  0  0  0  0  0  0
   39.0090   41.2920   26.0320 O   0  0  0  0  0  0  0  0  0  0  0  0
  2  3  1  0
  3  1  1  0
  4  5  1  0
  4  2  1  0
  5  6  1  0
  5  7  1  0
  7  8  1  0
  8  1  1  0
  8  9  2  0
M  END
$$$$

     RDKit          3D

  7  6  0  0  0  0  0  0  0  0999 V2000
   38.4360   38.4720   21.2380 O   0  0  0  0  0  0  0  0  0  0  0  0
   39.1510   39.6020   23.0640 C   0  0  0  0  0  0  0  0  0  0  0  0
   38.9540   39.0100   24.3120 C   0  0  0  0  0  0  0  0  0  0  0  0
   38.8250   40.7290   26.1890 O   0  0  0  0  0  0  0  0  0  0  0  0
   38.8260   39.8820   25.4400 C   0  0  0  0  0  0  0  0  0  0  0  0
   38.1540   39.3440   22.0970 C   0  0  0  0  0  0  0  0  0  0  0  0
   37.0470   39.9430   22.0880 O   0  0  0  0  0  0  0  0  0  0  0  0
  1  6  2  0
  2  3  1  0
  3  5  2  0
  5  4  2  0
  6  2  1  0
  7  6  1  0
M  END
$$$$

     RDKit          3D

 14 13  0  0  0  0  0  0  0  0999 V2000
   39.1140   38.2610   27.1370 N   0  0  0  0  0  0  0  0  0  0  0  0
   36.3780   38.1270   25.4880 O   0  0  0  0  0  0  0  0  0  0  0  0
   35.6460   38.7830   23.4560 C   0  0  0  0  0  0  0  0  0  0  0  0
   37.1790   36.6540   21.7030 O   0  0  0  0  0  0  0  0  0  0  0  0
   37.6730   40.8400   21.2810 O   0  0  0  0  0  0  0  0  0  0  0  0
   36.6490   38.0170   21.2820 C   0  0  0  0  0  0  0  0  0  0  0  0
   36.8120   38.9540   22.6370 C   0  0  0  0  0  0  0  0  0  0  0  0
   34.4900   36.5760   22.5220 N   0  0  0  0  0  0  0  0  0  0  0  0
   37.5020   37.7730   25.5570 C   0  0  0  0  0  0  0  0  0  0  0  0
   37.8680   38.2500   22.9120 C   0  0  0  0  0  0  0  0  0  0  0  0
   38.4560   38.0730   24.3060 C   0  0  0  0  0  0  0  0  0  0  0  0
   37.0260   40.3240   22.0610 C   0  0  0  0  0  0  0  0  0  0  0  0
   34.8670   37.6010   22.9790 C   0  0  0  0  0  0  0  0  0  0  0  0
   38.2160   37.1630   26.7840 C   0  0  0  0  0  0  0  0  0  0  0  0
  2  9  2  0
  5 12  2  0
  6  4  1  0
  7  6  1  0
  7 10  1  0
  7  3  1  0
  8 13  3  0
  9 14  1  0
 10 11  1  0
 11  9  1  0
 12  7  1  0
 13  3  1  0
 14  1  1  0
M  END
$$$$

     RDKit          3D

  6  6  0  0  0  0  0  0  0  0999 V2000
   38.8460   40.3210   25.5960 C   0  0  0  0  0  0  0  0  0  0  0  0
   39.2980   40.5910   24.3240 N   0  0  0  0  0  0  0  0  0  0  0  0
   38.8070   39.0000   25.6880 N   0  0  0  0  0  0  0  0  0  0  0  0
   39.9230   41.8520   23.9270 C   0  0  0  0  0  0  0  0  0  0  0  0
   39.0370   38.4930   24.4310 C   0  0  0  0  0  0  0  0  0  0  0  0
   39.3050   39.5110   23.6390 N   0  0  0  0  0  0  0  0  0  0  0  0
  1  3  2  0
  2  1  1  0
  4  2  1  0
  5  3  1  0
  6  2  1  0
  6  5  2  0
M  END
$$$$

     RDKit          3D

 18 17  0  0  0  0  0  0  0  0999 V2000
   40.6860   39.8970   23.0780 C   0  0  0  0  0  0  0  0  0  0  0  0
   38.7750   40.5810   25.1860 F   0  0  0  0  0  0  0  0  0  0  0  0
   34.2440   35.5080   21.2930 C   0  0  0  0  0  0  0  0  0  0  0  0
   36.0550   36.4100   21.7150 O   0  0  0  0  0  0  0  0  0  0  0  0
   35.0420   36.3500   22.0340 C   0  0  0  0  0  0  0  0  0  0  0  0
   36.8190   37.7420   24.0550 C   0  0  0  0  0  0  0  0  0  0  0  0
   34.7360   36.8710   23.1240 N   0  0  0  0  0  0  0  0  0  0  0  0
   35.4270   37.3570   24.3660 N   0  0  0  0  0  0  0  0  0  0  0  0
   34.4270   35.1700   20.2280 O   0  0  0  0  0  0  0  0  0  0  0  0
   40.0520   40.9340   22.0890 C   0  0  0  0  0  0  0  0  0  0  0  0
   33.0550   34.9060   22.0190 O   0  0  0  0  0  0  0  0  0  0  0  0
   40.0060   38.9570   24.1860 C   0  0  0  0  0  0  0  0  0  0  0  0
   38.1290   40.1690   23.2220 F   0  0  0  0  0  0  0  0  0  0  0  0
   37.7460   38.4430   25.9920 O   0  0  0  0  0  0  0  0  0  0  0  0
   32.4840   34.0430   21.0180 C   0  0  0  0  0  0  0  0  0  0  0  0
   38.6030   39.6160   24.2890 C   0  0  0  0  0  0  0  0  0  0  0  0
   39.9470   42.3340   22.7060 C   0  0  0  0  0  0  0  0  0  0  0  0
   37.5090   38.8130   24.7050 C   0  0  0  0  0  0  0  0  0  0  0  0
  1 12  1  0
  3 11  1  0
  3  5  1  0
  4  5  2  0
  5  7  1  0
  6  8  1  0
  6 18  1  0
  7  8  1  0
  9  3  2  0
 10 17  1  0
 10  1  1  0
 12 16  1  0
 13 16  1  0
 15 11  1  0
 16 18  1  0
 16  2  1  0
 18 14  1  0
M  END
$$$$

     RDKit          3D

  9  9  0  0  0  0  0  0  0  0999 V2000
   37.6780   39.6490   24.9830 C   0  0  0  0  0  0  0  0  0  0  0  0
   36.7510   36.6360   21.1490 O   0  0  0  0  0  0  0  0  0  0  0  0
   37.3770   40.1850   23.6210 C   0  0  0  0  0  0  0  0  0  0  0  0
   37.2340   37.9320   22.6940 C   0  0  0  0  0  0  0  0  0  0  0  0
   38.2230   37.0440   23.1230 O   0  0  0  0  0  0  0  0  0  0  0  0
   36.6500   37.6180   21.6090 C   0  0  0  0  0  0  0  0  0  0  0  0
   39.1740   40.1090   25.1820 C   0  0  0  0  0  0  0  0  0  0  0  0
   36.5940   38.9270   23.9420 C   0  0  0  0  0  0  0  0  0  0  0  0
   39.3140   40.5420   26.5060 O   0  0  0  0  0  0  0  0  0  0  0  0
  1  7  1  0
  2  6  2  0
  3  8  1  0
  3  1  1  0
  4  5  1  0
  6  4  1  0
  7  9  1  0
  8  4  1  0
  8  1  1  0
M  END
$$$$

     RDKit          3D

 17 17  0  0  0  0  0  0  0  0999 V2000
   36.3820   40.4350   21.9820 C   0  0  0  0  0  0  0  0  0  0  0  0
   37.2130   35.3900   20.1470 O   0  0  0  0  0  0  0  0  0  0  0  0
   35.1120   38.9490   23.8830 C   0  0  0  0  0  0  0  0  0  0  0  0
   37.6420   38.3940   21.3710 C   0  0  0  0  0  0  0  0  0  0  0  0
   36.5810   39.4180   20.8480 C   0  0  0  0  0  0  0  0  0  0  0  0
   38.7450   41.1300   26.8560 N   0  0  0  0  0  0  0  0  0  0  0  0
   39.9530   40.6300   24.9740 O   0  0  0  0  0  0  0  0  0  0  0  0
   34.9890   40.8460   21.5060 N   0  0  0  0  0  0  0  0  0  0  0  0
   37.2320   37.0240   21.6640 N   0  0  0  0  0  0  0  0  0  0  0  0
   37.7770   39.6230   25.2870 C   0  0  0  0  0  0  0  0  0  0  0  0
   36.3030   39.6890   23.2920 C   0  0  0  0  0  0  0  0  0  0  0  0
   36.6210   36.3600   20.6440 C   0  0  0  0  0  0  0  0  0  0  0  0
   38.8200   40.4650   25.6860 C   0  0  0  0  0  0  0  0  0  0  0  0
   37.1800   40.1980   19.2930 Br  0  0  0  0  0  0  0  0  0  0  0  0
   37.5090   39.5340   23.8580 C   0  0  0  0  0  0  0  0  0  0  0  0
   38.6200   38.9970   22.8510 S   0  0  0  0  0  0  0  0  0  0  0  0
   35.6110   36.7780   20.1070 O   0  0  0  0  0  0  0  0  0  0  0  0
  1  8  1  0
  1 11  1  0
  2 12  1  0
  4  9  1  0
  4 16  1  0
  5 14  1  0
  5  4  1  0
  5  1  1  0
  7 13  2  0
 10 13  1  0
 11 15  1  0
 11  3  1  0
 12  9  1  0
 13  6  1  0
 15 10  1  0
 16 15  1  0
 17 12  2  0
M  END
$$$$

     RDKit          3D

 15 15  0  0  0  0  0  0  0  0999 V2000
   36.7550   38.7240   22.7680 C   0  0  0  0  0  0  0  0  0  0  0  0
   39.5050   42.8060   23.1550 O   0  0  0  0  0  0  0  0  0  0  0  0
   38.4040   38.1020   22.3290 C   0  0  0  0  0  0  0  0  0  0  0  0
   37.4280   39.1080   24.3290 C   0  0  0  0  0  0  0  0  0  0  0  0
   36.5150   38.2830   21.3550 C   0  0  0  0  0  0  0  0  0  0  0  0
   39.1980   42.0920   20.6700 O   0  0  0  0  0  0  0  0  0  0  0  0
   38.0200   40.4850   22.8110 C   0  0  0  0  0  0  0  0  0  0  0  0
   38.3100   38.4590   25.3270 O   0  0  0  0  0  0  0  0  0  0  0  0
   34.4880   38.0540   20.0910 C   0  0  0  0  0  0  0  0  0  0  0  0
   40.9210   41.5980   21.4830 O   0  0  0  0  0  0  0  0  0  0  0  0
   35.2020   37.5390   21.3310 C   0  0  0  0  0  0  0  0  0  0  0  0
   38.5470   40.9780   25.7740 C   0  0  0  0  0  0  0  0  0  0  0  0
   39.3600   41.7820   22.1560 P   0  0  0  0  0  0  0  0  0  0  0  0
   38.0390   40.7150   24.3090 C   0  0  0  0  0  0  0  0  0  0  0  0
   38.5250   39.3930   21.8330 O   0  0  0  0  0  0  0  0  0  0  0  0
  1  5  1  0
  1  4  1  0
  3  1  1  0
  4  8  1  0
  6 13  2  0
  7 13  1  0
  7 14  1  0
  9 11  1  0
 10 13  1  0
 11  5  1  0
 13  2  1  0
 14  4  1  0
 14 12  1  0
 15  3  1  0
 15  7  1  0
M  END
$$$$

     RDKit          3D

 23 25  0  0  0  0  0  0  0  0999 V2000
   32.9620   35.5060   22.4960 O   0  0  0  0  0  0  0  0  0  0  0  0
   38.4730   39.4170   23.9120 N   0  0  0  0  0  0  0  0  0  0  0  0
   32.4110   33.8230   19.9190 C   0  0  0  0  0  0  0  0  0  0  0  0
   35.4750   38.8700   20.6060 S   0  0  0  0  0  0  0  0  0  0  0  0
   40.8260   41.3030   25.0380 O   0  0  0  0  0  0  0  0  0  0  0  0
   34.0740   35.1020   21.6410 S   0  0  0  0  0  0  0  0  0  0  0  0
   38.1280   37.6580   26.1710 N   0  0  0  0  0  0  0  0  0  0  0  0
   39.4980   37.8700   25.6300 C   0  0  0  0  0  0  0  0  0  0  0  0
   34.8860   36.6550   21.6170 C   0  0  0  0  0  0  0  0  0  0  0  0
   36.6870   38.0870   22.6800 C   0  0  0  0  0  0  0  0  0  0  0  0
   33.6100   34.7090   20.0110 C   0  0  0  0  0  0  0  0  0  0  0  0
   39.1090   41.4840   22.9690 O   0  0  0  0  0  0  0  0  0  0  0  0
   34.7830   33.5950   22.1520 C   0  0  0  0  0  0  0  0  0  0  0  0
   38.4520   40.4730   22.9000 C   0  0  0  0  0  0  0  0  0  0  0  0
   35.8380   36.9930   22.5270 C   0  0  0  0  0  0  0  0  0  0  0  0
   34.2560   37.4310   20.7260 C   0  0  0  0  0  0  0  0  0  0  0  0
   37.0910   37.6760   25.0840 C   0  0  0  0  0  0  0  0  0  0  0  0
   37.4560   38.4690   23.9130 C   0  0  0  0  0  0  0  0  0  0  0  0
   39.8940   40.5030   25.7670 C   0  0  0  0  0  0  0  0  0  0  0  0
   37.6540   40.3020   21.7820 C   0  0  0  0  0  0  0  0  0  0  0  0
   39.5670   39.2530   24.9460 C   0  0  0  0  0  0  0  0  0  0  0  0
   36.6270   39.2140   21.7350 C   0  0  0  0  0  0  0  0  0  0  0  0
   36.0570   37.0710   25.2090 O   0  0  0  0  0  0  0  0  0  0  0  0
  2 18  1  0
  2 21  1  0
  3 11  1  0
  4 16  1  0
  4 22  1  0
  5 19  1  0
  6 13  1  0
  6  1  1  0
  8  7  1  0
  9  6  1  0
  9 15  2  0
 11  6  1  0
 14 12  2  0
 14  2  1  0
 15 10  1  0
 16  9  1  0
 17 23  2  0
 17  7  1  0
 18 10  1  0
 18 17  1  0
 20 14  1  0
 21  8  1  0
 21 19  1  0
 22 20  1  0
 22 10  2  0
M  END
$$$$

     RDKit          3D

  8  7  0  0  0  0  0  0  0  0999 V2000
   37.4130   39.7550   23.7220 C   0  0  0  0  0  0  0  0  0  0  0  0
   37.1130   38.3980   24.1670 N   0  0  0  0  0  0  0  0  0  0  0  0
   39.6440   42.3380   24.8940 C   0  0  0  0  0  0  0  0  0  0  0  0
   38.8330   40.0600   24.3260 C   0  0  0  0  0  0  0  0  0  0  0  0
   39.8580   41.4040   22.5670 O   0  0  0  0  0  0  0  0  0  0  0  0
   39.6030   41.2640   23.8180 C   0  0  0  0  0  0  0  0  0  0  0  0
   39.6610   38.9300   24.3630 O   0  0  0  0  0  0  0  0  0  0  0  0
   39.1520   41.8890   25.9170 O   0  0  0  0  0  0  0  0  0  0  0  0
  1  2  1  0
  1  4  1  0
  3  8  1  0
  4  7  1  0
  5  6  2  0
  6  4  1  0
  6  3  1  0
M  END
$$$$

     RDKit          3D

 11 10  0  0  0  0  0  0  0  0999 V2000
   38.5600   39.1740   24.1640 C   0  0  0  0  0  0  0  0  0  0  0  0
   34.8510   39.6490   21.1300 O   0  0  0  0  0  0  0  0  0  0  0  0
   37.5250   38.2180   23.9030 N   0  0  0  0  0  0  0  0  0  0  0  0
   34.6570   39.0160   23.4910 C   0  0  0  0  0  0  0  0  0  0  0  0
   35.2220   38.8020   22.0830 C   0  0  0  0  0  0  0  0  0  0  0  0
   37.4080   36.6520   22.1260 O   0  0  0  0  0  0  0  0  0  0  0  0
   33.2150   38.5110   23.5210 C   0  0  0  0  0  0  0  0  0  0  0  0
   39.5590   39.3010   23.3160 O   0  0  0  0  0  0  0  0  0  0  0  0
   38.2960   40.2250   24.8290 O   0  0  0  0  0  0  0  0  0  0  0  0
   36.6650   38.8590   21.8400 C   0  0  0  0  0  0  0  0  0  0  0  0
   37.2090   37.7610   22.6380 C   0  0  0  0  0  0  0  0  0  0  0  0
  1  9  1  0
  3  1  1  0
  4  7  1  0
  5  2  1  0
  5  4  1  0
  6 11  2  0
  8  1  2  0
 10  5  1  0
 10 11  1  0
 11  3  1  0
M  END
$$$$

     RDKit          3D

  9  8  0  0  0  0  0  0  0  0999 V2000
   39.2310   38.4120   23.1730 O   0  0  0  0  0  0  0  0  0  0  0  0
   36.7630   41.4190   21.3790 C   0  0  0  0  0  0  0  0  0  0  0  0
   38.6290   39.3380   25.2240 C   0  0  0  0  0  0  0  0  0  0  0  0
   37.7810   40.4150   21.8430 C   0  0  0  0  0  0  0  0  0  0  0  0
   38.6910   39.3730   23.7280 C   0  0  0  0  0  0  0  0  0  0  0  0
   38.7760   38.1380   25.6950 O   0  0  0  0  0  0  0  0  0  0  0  0
   38.3470   40.3160   25.9380 O   0  0  0  0  0  0  0  0  0  0  0  0
   37.5380   39.2630   21.1900 O   0  0  0  0  0  0  0  0  0  0  0  0
   38.1780   40.4450   23.0960 N   0  0  0  0  0  0  0  0  0  0  0  0
  1  5  2  0
  2  4  1  0
  3  6  2  0
  3  7  1  0
  4  9  1  0
  5  3  1  0
  8  4  2  0
  9  5  1  0
M  END
$$$$

     RDKit          3D

 13 13  0  0  0  0  0  0  0  0999 V2000
   37.3680   35.9860   26.5170 C   0  0  0  0  0  0  0  0  0  0  0  0
   36.2490   43.2480   22.1770 N   0  0  0  0  0  0  0  0  0  0  0  0
   36.8980   37.9590   23.4470 C   0  0  0  0  0  0  0  0  0  0  0  0
   38.0440   40.7250   20.6760 O   0  0  0  0  0  0  0  0  0  0  0  0
   37.1350   37.2610   25.7060 C   0  0  0  0  0  0  0  0  0  0  0  0
   37.1450   42.7520   21.2290 C   0  0  0  0  0  0  0  0  0  0  0  0
   37.5400   38.5210   26.1110 N   0  0  0  0  0  0  0  0  0  0  0  0
   36.4770   37.2070   24.4860 N   0  0  0  0  0  0  0  0  0  0  0  0
   36.9430   42.5960   19.8050 O   0  0  0  0  0  0  0  0  0  0  0  0
   37.1670   39.4230   23.8580 C   0  0  0  0  0  0  0  0  0  0  0  0
   37.4230   40.4590   22.9680 O   0  0  0  0  0  0  0  0  0  0  0  0
   37.5740   41.4030   21.5510 C   0  0  0  0  0  0  0  0  0  0  0  0
   37.6080   39.5240   25.2560 C   0  0  0  0  0  0  0  0  0  0  0  0
  3 10  1  0
  3  8  1  0
  4 12  2  0
  5  7  2  0
  5  1  1  0
  6  9  1  0
  6 12  1  0
  6  2  1  0
  8  5  1  0
 10 13  2  0
 11 10  1  0
 12 11  1  0
 13  7  1  0
M  END
$$$$

     RDKit          3D

 11 10  0  0  0  0  0  0  0  0999 V2000
   36.7480   40.6970   22.5730 C   0  0  0  0  0  0  0  0  0  0  0  0
   37.5170   39.8620   23.6250 C   0  0  0  0  0  0  0  0  0  0  0  0
   38.6950   40.3710   23.8820 O   0  0  0  0  0  0  0  0  0  0  0  0
   41.6170   39.3120   23.2270 C   0  0  0  0  0  0  0  0  0  0  0  0
   35.1940   40.1360   20.8670 O   0  0  0  0  0  0  0  0  0  0  0  0
   39.1790   37.9140   24.2090 O   0  0  0  0  0  0  0  0  0  0  0  0
   40.9920   39.6130   24.4630 O   0  0  0  0  0  0  0  0  0  0  0  0
   37.5950   41.6870   22.0190 O   0  0  0  0  0  0  0  0  0  0  0  0
   39.0820   39.6110   26.2040 O   0  0  0  0  0  0  0  0  0  0  0  0
   39.4300   39.1750   24.6310 P   0  0  0  0  0  0  0  0  0  0  0  0
   36.2420   39.6570   21.5490 C   0  0  0  0  0  0  0  0  0  0  0  0
  1  8  1  0
  1  2  1  0
  2  3  1  0
  3 10  1  0
  4  7  1  0
  5 11  1  0
  7 10  1  0
 10  6  2  0
 10  9  1  0
 11  1  1  0
M  END
$$$$

     RDKit          3D

 19 21  0  0  0  0  0  0  0  0999 V2000
   36.9510   38.0600   23.4670 C   0  0  0  0  0  0  0  0  0  0  0  0
   35.5220   37.6910   24.0010 C   0  0  0  0  0  0  0  0  0  0  0  0
   39.3740   40.3760   24.4710 C   0  0  0  0  0  0  0  0  0  0  0  0
   41.3380   38.4720   21.7430 O   0  0  0  0  0  0  0  0  0  0  0  0
   34.5240   37.5990   21.6760 C   0  0  0  0  0  0  0  0  0  0  0  0
   41.3120   39.4760   22.8770 P   0  0  0  0  0  0  0  0  0  0  0  0
   38.1820   40.1040   23.6400 C   0  0  0  0  0  0  0  0  0  0  0  0
   39.5730   39.4180   23.3260 C   0  0  0  0  0  0  0  0  0  0  0  0
   39.8880   41.6950   24.2910 O   0  0  0  0  0  0  0  0  0  0  0  0
   37.6080   38.7170   24.6390 C   0  0  0  0  0  0  0  0  0  0  0  0
   39.0270   37.9420   24.8930 C   0  0  0  0  0  0  0  0  0  0  0  0
   33.4970   37.7540   20.5880 C   0  0  0  0  0  0  0  0  0  0  0  0
   37.0470   39.4540   22.6900 C   0  0  0  0  0  0  0  0  0  0  0  0
   41.8700   38.8310   24.3680 O   0  0  0  0  0  0  0  0  0  0  0  0
   42.0790   40.6610   22.7850 O   0  0  0  0  0  0  0  0  0  0  0  0
   35.4550   36.8800   21.4220 O   0  0  0  0  0  0  0  0  0  0  0  0
   39.4530   38.0240   23.5560 O   0  0  0  0  0  0  0  0  0  0  0  0
   34.3990   38.2640   23.0550 C   0  0  0  0  0  0  0  0  0  0  0  0
   33.8800   38.6710   19.6640 O   0  0  0  0  0  0  0  0  0  0  0  0
  1  2  1  0
  1 10  1  0
  3  9  1  0
  4  6  2  0
  5 18  1  0
  6 14  1  0
  7 13  1  0
  7  3  1  0
  7 10  1  0
  8  6  1  0
  8 17  1  0
  8  7  1  0
  8  3  1  0
 10 11  1  0
 12  5  1  0
 13  1  1  0
 15  6  1  0
 16  5  2  0
 17 11  1  0
 18  2  1  0
 19 12  1  0
M  END
$$$$
