
     RDKit          3D

 13 13  0  0  0  0  0  0  0  0999 V2000
   38.9610   40.2700   26.5660 C   0  0  0  0  0  0  0  0  0  0  0  0
   36.4180   41.5760   25.7930 S   0  0  0  0  0  0  0  0  0  0  0  0
   40.5080   42.4400   26.2390 C   0  0  0  0  0  0  0  0  0  0  0  0
   38.0090   38.9440   25.6800 S   0  0  0  0  0  0  0  0  0  0  0  0
   39.6860   39.7240   30.1860 O   0  0  0  0  0  0  0  0  0  0  0  0
   37.9630   41.5130   26.7750 C   0  0  0  0  0  0  0  0  0  0  0  0
   39.3260   41.7570   26.4610 C   0  0  0  0  0  0  0  0  0  0  0  0
   39.3120   39.6770   27.7510 O   0  0  0  0  0  0  0  0  0  0  0  0
   41.5910   41.7680   26.2240 O   0  0  0  0  0  0  0  0  0  0  0  0
   39.9710   40.5680   28.9390 P   0  0  0  0  0  0  0  0  0  0  0  0
   41.4230   40.6730   28.7930 O   0  0  0  0  0  0  0  0  0  0  0  0
   40.6590   43.7430   26.6450 N   0  0  0  0  0  0  0  0  0  0  0  0
   39.3550   41.9460   28.9380 O   0  0  0  0  0  0  0  0  0  0  0  0
  1  4  1  0
  1  6  1  0
  1  8  1  0
  3 12  1  0
  6  2  1  0
  7  3  1  0
  7  1  1  0
  7  6  1  0
  8 10  1  0
  9  3  2  0
 10  5  1  0
 11 10  2  0
 13 10  1  0
M  END
$$$$

     RDKit          3D

 12 12  0  0  0  0  0  0  0  0999 V2000
   41.5980   41.2650   27.2970 O   0  0  0  0  0  0  0  0  0  0  0  0
   41.7570   42.9530   25.3910 O   0  0  0  0  0  0  0  0  0  0  0  0
   41.3810   40.3920   24.9160 N   0  0  0  0  0  0  0  0  0  0  0  0
   37.7760   39.9000   26.8530 C   0  0  0  0  0  0  0  0  0  0  0  0
   36.5870   40.6360   27.1740 O   0  0  0  0  0  0  0  0  0  0  0  0
   39.4710   40.5500   27.6780 C   0  0  0  0  0  0  0  0  0  0  0  0
   38.9250   43.4320   25.7870 C   0  0  0  0  0  0  0  0  0  0  0  0
   38.5560   40.2790   29.7210 O   0  0  0  0  0  0  0  0  0  0  0  0
   38.4250   39.7140   28.4580 C   0  0  0  0  0  0  0  0  0  0  0  0
   41.1230   41.7400   25.8670 S   0  0  0  0  0  0  0  0  0  0  0  0
   39.4050   41.9780   25.6210 C   0  0  0  0  0  0  0  0  0  0  0  0
   38.7240   41.0220   26.6350 N   0  0  0  0  0  0  0  0  0  0  0  0
  2 10  2  0
  3 10  1  0
  4  5  1  0
  4  9  1  0
  6  9  1  0
  9  8  1  0
 10  1  2  0
 11  7  1  0
 11 10  1  0
 11 12  1  0
 12  4  1  0
 12  6  1  0
M  END
$$$$

     RDKit          3D

 12 11  0  0  0  0  0  0  0  0999 V2000
   38.9690   38.5410   27.4460 O   0  0  0  0  0  0  0  0  0  0  0  0
   37.1350   42.9530   26.8070 C   0  0  0  0  0  0  0  0  0  0  0  0
   39.6050   40.6120   30.2300 N   0  0  0  0  0  0  0  0  0  0  0  0
   39.2820   39.7530   26.7160 C   0  0  0  0  0  0  0  0  0  0  0  0
   38.7230   38.8560   28.8100 C   0  0  0  0  0  0  0  0  0  0  0  0
   39.7600   39.8300   29.2020 C   0  0  0  0  0  0  0  0  0  0  0  0
   38.7680   41.0480   27.2300 C   0  0  0  0  0  0  0  0  0  0  0  0
   38.9720   37.6470   29.6630 C   0  0  0  0  0  0  0  0  0  0  0  0
   38.0530   41.7180   25.0330 C   0  0  0  0  0  0  0  0  0  0  0  0
   37.5440   41.5670   26.4590 C   0  0  0  0  0  0  0  0  0  0  0  0
   36.3580   40.6200   26.5290 C   0  0  0  0  0  0  0  0  0  0  0  0
   39.4620   41.7150   27.9660 O   0  0  0  0  0  0  0  0  0  0  0  0
  1  5  1  0
  4  7  1  0
  4  1  1  0
  5  6  1  0
  5  8  1  0
  6  3  2  0
  7 12  2  0
  9 10  1  0
 10 11  1  0
 10  2  1  0
 10  7  1  0
M  END
$$$$

     RDKit          3D

 13 13  0  0  0  0  0  0  0  0999 V2000
   40.3530   40.1630   27.8500 C   0  0  0  0  0  0  0  0  0  0  0  0
   36.7080   42.9200   25.6260 C   0  0  0  0  0  0  0  0  0  0  0  0
   38.3140   39.0990   26.0820 C   0  0  0  0  0  0  0  0  0  0  0  0
   37.0980   40.5040   24.4640 C   0  0  0  0  0  0  0  0  0  0  0  0
   35.5340   43.4660   25.0570 C   0  0  0  0  0  0  0  0  0  0  0  0
   36.9520   41.4290   25.6180 C   0  0  0  0  0  0  0  0  0  0  0  0
   37.1480   40.9690   26.9540 C   0  0  0  0  0  0  0  0  0  0  0  0
   39.6380   39.2800   28.7970 N   0  0  0  0  0  0  0  0  0  0  0  0
   40.0300   39.4920   30.1890 N   0  0  0  0  0  0  0  0  0  0  0  0
   40.1030   40.9620   30.4630 C   0  0  0  0  0  0  0  0  0  0  0  0
   37.8160   39.3380   24.7830 C   0  0  0  0  0  0  0  0  0  0  0  0
   37.8850   39.8330   27.1750 C   0  0  0  0  0  0  0  0  0  0  0  0
   38.1960   39.4900   28.5920 C   0  0  0  0  0  0  0  0  0  0  0  0
  1  8  1  0
  3 12  1  0
  4 11  1  0
  4  6  1  0
  5  2  1  0
  6  2  1  0
  6  7  1  0
  7 12  2  0
  8  9  1  0
  9 10  1  0
 11  3  2  0
 12 13  1  0
 13  8  1  0
M  END
$$$$

     RDKit          3D

  8  7  0  0  0  0  0  0  0  0999 V2000
   37.7050   40.0980   28.2420 O   0  0  0  0  0  0  0  0  0  0  0  0
   39.1980   42.0640   28.8290 O   0  0  0  0  0  0  0  0  0  0  0  0
   39.6300   41.0550   29.5120 C   0  0  0  0  0  0  0  0  0  0  0  0
   38.8410   38.9790   26.6450 N   0  0  0  0  0  0  0  0  0  0  0  0
   38.6360   40.0650   27.4640 C   0  0  0  0  0  0  0  0  0  0  0  0
   38.4710   42.7840   25.5780 C   0  0  0  0  0  0  0  0  0  0  0  0
   39.4880   41.3020   27.3340 C   0  0  0  0  0  0  0  0  0  0  0  0
   39.4890   41.6690   25.8020 C   0  0  0  0  0  0  0  0  0  0  0  0
  2  3  1  0
  4  5  1  0
  5  1  2  0
  6  8  1  0
  7  8  1  0
  7  5  1  0
  7  2  1  0
M  END
$$$$

     RDKit          3D

 11 11  0  0  0  0  0  0  0  0999 V2000
   38.6310   41.6650   29.1170 O   0  0  0  0  0  0  0  0  0  0  0  0
   38.9580   39.4910   26.5180 C   0  0  0  0  0  0  0  0  0  0  0  0
   37.2570   41.4030   27.3450 N   0  0  0  0  0  0  0  0  0  0  0  0
   39.4760   38.9080   29.3630 C   0  0  0  0  0  0  0  0  0  0  0  0
   37.2720   41.8100   24.8680 O   0  0  0  0  0  0  0  0  0  0  0  0
   38.7940   39.4510   28.0530 C   0  0  0  0  0  0  0  0  0  0  0  0
   36.3880   42.8080   24.4040 C   0  0  0  0  0  0  0  0  0  0  0  0
   37.2830   40.8590   25.9720 C   0  0  0  0  0  0  0  0  0  0  0  0
   38.2120   40.8960   28.3350 C   0  0  0  0  0  0  0  0  0  0  0  0
   38.6870   37.8680   30.1650 C   0  0  0  0  0  0  0  0  0  0  0  0
   37.7040   39.3930   25.7140 C   0  0  0  0  0  0  0  0  0  0  0  0
  2  6  1  0
  3  9  1  0
  4 10  1  0
  5  8  1  0
  6  9  1  0
  6  4  1  0
  7  5  1  0
  8  3  2  0
  9  1  2  0
 11  8  1  0
 11  2  1  0
M  END
$$$$

     RDKit          3D

  8  7  0  0  0  0  0  0  0  0999 V2000
   38.1250   41.0780   27.3990 C   0  0  0  0  0  0  0  0  0  0  0  0
   40.1920   40.2340   28.4340 N   0  0  0  0  0  0  0  0  0  0  0  0
   39.4410   40.3160   27.3110 C   0  0  0  0  0  0  0  0  0  0  0  0
   40.3130   42.3910   28.7830 O   0  0  0  0  0  0  0  0  0  0  0  0
   37.2360   40.5950   28.0470 O   0  0  0  0  0  0  0  0  0  0  0  0
   39.9080   41.2640   29.4820 C   0  0  0  0  0  0  0  0  0  0  0  0
   39.9330   39.8450   26.1770 O   0  0  0  0  0  0  0  0  0  0  0  0
   40.8400   41.0970   30.6500 C   0  0  0  0  0  0  0  0  0  0  0  0
  1  5  2  0
  2  6  1  0
  3  1  1  0
  3  2  1  0
  4  6  1  0
  6  8  1  0
  7  3  2  0
M  END
$$$$

     RDKit          3D

 17 19  0  0  0  0  0  0  0  0999 V2000
   35.2410   40.5500   24.8030 C   0  0  0  0  0  0  0  0  0  0  0  0
   33.9900   41.0260   24.1110 C   0  0  0  0  0  0  0  0  0  0  0  0
   36.1790   39.7150   24.1920 C   0  0  0  0  0  0  0  0  0  0  0  0
   37.3870   39.4700   24.8760 C   0  0  0  0  0  0  0  0  0  0  0  0
   35.5460   41.1620   26.0080 C   0  0  0  0  0  0  0  0  0  0  0  0
   37.8460   40.5440   29.7070 O   0  0  0  0  0  0  0  0  0  0  0  0
   37.5110   38.1840   28.8080 C   0  0  0  0  0  0  0  0  0  0  0  0
   39.7230   38.8920   29.6980 N   0  0  0  0  0  0  0  0  0  0  0  0
   33.7910   40.3660   22.8590 O   0  0  0  0  0  0  0  0  0  0  0  0
   38.3980   39.2760   29.4240 C   0  0  0  0  0  0  0  0  0  0  0  0
   37.6420   40.0900   26.0790 C   0  0  0  0  0  0  0  0  0  0  0  0
   38.8850   39.7810   26.8470 C   0  0  0  0  0  0  0  0  0  0  0  0
   32.4490   39.8830   22.7150 C   0  0  0  0  0  0  0  0  0  0  0  0
   32.7020   40.8500   24.9270 C   0  0  0  0  0  0  0  0  0  0  0  0
   31.8920   39.8030   24.1920 C   0  0  0  0  0  0  0  0  0  0  0  0
   36.7440   40.9690   26.6080 C   0  0  0  0  0  0  0  0  0  0  0  0
   38.4930   40.2980   28.3500 C   0  0  0  0  0  0  0  0  0  0  0  0
  1  5  1  0
  2  1  1  0
  2 14  1  0
  3  1  2  0
  3  4  1  0
  4 11  2  0
  5 16  2  0
  9  2  1  0
 10  7  1  0
 10  8  1  0
 10  6  1  0
 11 16  1  0
 11 12  1  0
 12 17  1  0
 13  9  1  0
 13 15  1  0
 15 14  1  0
 17 10  1  0
 17  6  1  0
M  END
$$$$

     RDKit          3D

 15 14  0  0  0  0  0  0  0  0999 V2000
   41.4290   42.0000   25.1520 O   0  0  0  0  0  0  0  0  0  0  0  0
   39.3200   40.2190   25.7920 C   0  0  0  0  0  0  0  0  0  0  0  0
   40.3490   42.4330   25.9810 C   0  0  0  0  0  0  0  0  0  0  0  0
   37.8770   40.0900   28.0910 N   0  0  0  0  0  0  0  0  0  0  0  0
   38.9070   38.7900   29.7720 C   0  0  0  0  0  0  0  0  0  0  0  0
   40.2410   40.2250   26.9130 C   0  0  0  0  0  0  0  0  0  0  0  0
   36.0410   42.0930   25.0570 C   0  0  0  0  0  0  0  0  0  0  0  0
   39.4410   41.2570   29.5860 C   0  0  0  0  0  0  0  0  0  0  0  0
   37.7570   40.2800   26.5390 S   0  0  0  0  0  0  0  0  0  0  0  0
   38.7170   40.0450   29.0880 C   0  0  0  0  0  0  0  0  0  0  0  0
   37.0650   41.8950   26.0680 N   0  0  0  0  0  0  0  0  0  0  0  0
   41.7750   41.8740   27.8710 O   0  0  0  0  0  0  0  0  0  0  0  0
   39.5790   39.9860   24.6000 O   0  0  0  0  0  0  0  0  0  0  0  0
   40.4730   41.6860   27.3100 C   0  0  0  0  0  0  0  0  0  0  0  0
   36.7930   39.3120   25.9730 O   0  0  0  0  0  0  0  0  0  0  0  0
  1  3  1  0
  2  9  1  0
  2  6  1  0
  3 14  1  0
  4 10  1  0
  6 14  1  0
  7 11  1  0
  9 15  1  0
  9  4  1  0
 10  8  1  0
 10  5  1  0
 11  9  1  0
 13  2  2  0
 14 12  1  0
M  END
$$$$

     RDKit          3D

 10  9  0  0  0  0  0  0  0  0999 V2000
   37.5220   40.1650   28.8400 O   0  0  0  0  0  0  0  0  0  0  0  0
   37.9250   39.9590   26.5800 C   0  0  0  0  0  0  0  0  0  0  0  0
   40.1710   41.2770   29.3260 S   0  0  0  0  0  0  0  0  0  0  0  0
   39.0430   40.2340   27.1620 N   0  0  0  0  0  0  0  0  0  0  0  0
   37.6730   38.7390   26.3780 O   0  0  0  0  0  0  0  0  0  0  0  0
   41.4280   40.7260   28.5670 O   0  0  0  0  0  0  0  0  0  0  0  0
   39.9710   40.5570   30.6400 O   0  0  0  0  0  0  0  0  0  0  0  0
   37.1640   40.9250   26.2950 O   0  0  0  0  0  0  0  0  0  0  0  0
   40.0080   42.7120   29.2460 O   0  0  0  0  0  0  0  0  0  0  0  0
   38.7110   40.8640   28.4030 C   0  0  0  0  0  0  0  0  0  0  0  0
  2  4  1  0
  3  7  1  0
  4 10  1  0
  5  2  1  0
  6  3  1  0
  8  2  2  0
  9  3  1  0
 10  1  1  0
 10  3  1  0
M  END
$$$$

     RDKit          3D

 17 19  0  0  0  0  0  0  0  0999 V2000
   38.3550   39.2820   27.7470 C   0  0  0  0  0  0  0  0  0  0  0  0
   37.4580   39.9140   25.5720 C   0  0  0  0  0  0  0  0  0  0  0  0
   40.0840   40.4660   29.6850 C   0  0  0  0  0  0  0  0  0  0  0  0
   38.5110   40.9230   27.6360 C   0  0  0  0  0  0  0  0  0  0  0  0
   40.0200   38.4360   31.0730 O   0  0  0  0  0  0  0  0  0  0  0  0
   38.9140   40.4390   25.2740 C   0  0  0  0  0  0  0  0  0  0  0  0
   36.7360   41.1390   25.9560 C   0  0  0  0  0  0  0  0  0  0  0  0
   38.5460   43.2060   26.8240 O   0  0  0  0  0  0  0  0  0  0  0  0
   36.8990   41.1500   27.3750 O   0  0  0  0  0  0  0  0  0  0  0  0
   39.5560   39.2330   29.9560 C   0  0  0  0  0  0  0  0  0  0  0  0
   39.0140   41.6890   26.3780 C   0  0  0  0  0  0  0  0  0  0  0  0
   39.5600   41.2430   28.6450 C   0  0  0  0  0  0  0  0  0  0  0  0
   41.5600   41.0870   30.8030 Br  0  0  0  0  0  0  0  0  0  0  0  0
   36.9550   39.3060   24.3000 O   0  0  0  0  0  0  0  0  0  0  0  0
   38.9940   41.0320   23.9150 O   0  0  0  0  0  0  0  0  0  0  0  0
   38.5330   38.7800   29.0070 C   0  0  0  0  0  0  0  0  0  0  0  0
   37.5020   38.9390   26.4620 C   0  0  0  0  0  0  0  0  0  0  0  0
  1 17  1  0
  1 16  1  0
  2 14  1  0
  2  7  1  0
  2 17  1  0
  3 10  2  0
  3 13  1  0
  4  1  1  0
  4 12  1  0
  6 15  1  0
  6  2  1  0
  6 11  1  0
  7  9  1  0
  9  4  1  0
 10  5  1  0
 11  8  1  0
 11  4  1  0
 12  3  1  0
 16 10  1  0
M  END
$$$$

     RDKit          3D

 10  9  0  0  0  0  0  0  0  0999 V2000
   40.6830   39.9810   29.3340 O   0  0  0  0  0  0  0  0  0  0  0  0
   37.8010   41.0890   25.5520 C   0  0  0  0  0  0  0  0  0  0  0  0
   39.4890   40.1680   27.3010 N   0  0  0  0  0  0  0  0  0  0  0  0
   38.4030   39.1590   28.8330 O   0  0  0  0  0  0  0  0  0  0  0  0
   39.3590   40.2360   28.8120 S   0  0  0  0  0  0  0  0  0  0  0  0
   38.0840   38.7030   25.6030 O   0  0  0  0  0  0  0  0  0  0  0  0
   38.1940   39.8600   26.5340 C   0  0  0  0  0  0  0  0  0  0  0  0
   38.7570   41.4130   29.4910 O   0  0  0  0  0  0  0  0  0  0  0  0
   37.4370   41.0380   24.4960 O   0  0  0  0  0  0  0  0  0  0  0  0
   38.2000   42.1370   26.1580 O   0  0  0  0  0  0  0  0  0  0  0  0
  2 10  1  0
  2  7  1  0
  3  5  1  0
  5  4  1  0
  5  1  1  0
  5  8  1  0
  7  6  1  0
  7  3  1  0
  9  2  2  0
M  END
$$$$

     RDKit          3D

 13 13  0  0  0  0  0  0  0  0999 V2000
   38.4370   38.0350   29.9830 C   0  0  0  0  0  0  0  0  0  0  0  0
   38.6810   39.3090   29.0600 C   0  0  0  0  0  0  0  0  0  0  0  0
   38.4570   42.7290   25.4470 C   0  0  0  0  0  0  0  0  0  0  0  0
   40.1950   39.3590   28.8450 N   0  0  0  0  0  0  0  0  0  0  0  0
   38.2330   40.1730   25.1090 P   0  0  0  0  0  0  0  0  0  0  0  0
   38.2580   43.8390   25.0750 O   0  0  0  0  0  0  0  0  0  0  0  0
   37.4810   40.6540   26.9440 C   0  0  0  0  0  0  0  0  0  0  0  0
   37.6180   38.8630   24.7830 O   0  0  0  0  0  0  0  0  0  0  0  0
   37.8020   39.2060   27.6160 C   0  0  0  0  0  0  0  0  0  0  0  0
   39.5090   40.6900   25.7720 O   0  0  0  0  0  0  0  0  0  0  0  0
   37.6130   42.1020   26.4430 O   0  0  0  0  0  0  0  0  0  0  0  0
   39.5390   41.9960   25.2140 N   0  0  0  0  0  0  0  0  0  0  0  0
   38.6180   40.6460   23.6160 O   0  0  0  0  0  0  0  0  0  0  0  0
  2  1  1  0
  3 11  1  0
  4  2  1  0
  5 13  2  0
  5 10  1  0
  5  7  1  0
  6  3  2  0
  7  9  1  0
  8  5  1  0
  9  2  1  0
 11  7  1  0
 12  3  1  0
 12 10  1  0
M  END
$$$$

     RDKit          3D

 17 17  0  0  0  0  0  0  0  0999 V2000
   37.5460   39.7130   26.0140 C   0  0  0  0  0  0  0  0  0  0  0  0
   36.3970   37.6070   30.6950 C   0  0  0  0  0  0  0  0  0  0  0  0
   35.6440   39.5550   25.0320 N   0  0  0  0  0  0  0  0  0  0  0  0
   37.1840   41.7780   27.3900 C   0  0  0  0  0  0  0  0  0  0  0  0
   37.9830   37.4640   30.0660 C   0  0  0  0  0  0  0  0  0  0  0  0
   38.5680   38.6500   30.6300 N   0  0  0  0  0  0  0  0  0  0  0  0
   39.4060   39.5450   28.7490 C   0  0  0  0  0  0  0  0  0  0  0  0
   40.4510   40.3090   24.8760 C   0  0  0  0  0  0  0  0  0  0  0  0
   39.5020   40.3050   27.4240 C   0  0  0  0  0  0  0  0  0  0  0  0
   39.9710   39.8660   26.1340 N   0  0  0  0  0  0  0  0  0  0  0  0
   39.6760   40.5020   23.7330 O   0  0  0  0  0  0  0  0  0  0  0  0
   41.6630   40.4210   24.7150 O   0  0  0  0  0  0  0  0  0  0  0  0
   38.6740   41.6210   27.6960 C   0  0  0  0  0  0  0  0  0  0  0  0
   37.8230   38.7790   25.2780 N   0  0  0  0  0  0  0  0  0  0  0  0
   36.7220   39.0960   24.8940 C   0  0  0  0  0  0  0  0  0  0  0  0
   36.6530   40.5330   26.5040 N   0  0  0  0  0  0  0  0  0  0  0  0
   38.3210   39.7660   29.7590 C   0  0  0  0  0  0  0  0  0  0  0  0
  1 16  1  0
  4 13  1  0
  5  6  1  0
  5  2  1  0
  7 17  1  0
  8 10  1  0
  9 13  1  0
  9  7  1  0
 10  9  1  0
 11  8  2  0
 12  8  1  0
 14  1  1  0
 15  3  1  0
 15 14  1  0
 15  1  1  0
 16  4  1  0
 17  6  1  0
M  END
$$$$

     RDKit          3D

 10 10  0  0  0  0  0  0  0  0999 V2000
   39.5250   39.0790   30.1070 N   0  0  0  0  0  0  0  0  0  0  0  0
   37.7320   39.2350   25.5650 C   0  0  0  0  0  0  0  0  0  0  0  0
   39.9980   40.0110   29.0850 C   0  0  0  0  0  0  0  0  0  0  0  0
   36.8890   40.1710   25.1250 C   0  0  0  0  0  0  0  0  0  0  0  0
   38.3640   39.4900   26.7550 C   0  0  0  0  0  0  0  0  0  0  0  0
   38.8050   40.9010   28.8350 C   0  0  0  0  0  0  0  0  0  0  0  0
   37.2410   41.5450   27.0090 C   0  0  0  0  0  0  0  0  0  0  0  0
   38.1350   40.6300   27.5080 C   0  0  0  0  0  0  0  0  0  0  0  0
   35.2760   42.5810   25.2700 Br  0  0  0  0  0  0  0  0  0  0  0  0
   36.5750   41.3010   25.8430 C   0  0  0  0  0  0  0  0  0  0  0  0
  2  5  1  0
  3  1  1  0
  4  2  2  0
  4 10  1  0
  5  8  2  0
  6  3  1  0
  7  8  1  0
  8  6  1  0
  9 10  1  0
 10  7  2  0
M  END
$$$$

     RDKit          3D

 18 19  0  0  0  0  0  0  0  0999 V2000
   35.8860   42.2300   26.0960 C   0  0  0  0  0  0  0  0  0  0  0  0
   38.8900   37.5160   30.4890 C   0  0  0  0  0  0  0  0  0  0  0  0
   37.6490   37.5200   30.8890 F   0  0  0  0  0  0  0  0  0  0  0  0
   37.8940   37.5600   28.1480 O   0  0  0  0  0  0  0  0  0  0  0  0
   41.7080   40.6820   30.7170 C   0  0  0  0  0  0  0  0  0  0  0  0
   40.4840   39.6730   30.9120 C   0  0  0  0  0  0  0  0  0  0  0  0
   38.3650   42.4610   25.9310 C   0  0  0  0  0  0  0  0  0  0  0  0
   38.8730   40.7100   27.9400 C   0  0  0  0  0  0  0  0  0  0  0  0
   38.8890   39.6630   28.9770 C   0  0  0  0  0  0  0  0  0  0  0  0
   39.4280   39.7680   26.7120 C   0  0  0  0  0  0  0  0  0  0  0  0
   38.6400   38.1490   29.0080 C   0  0  0  0  0  0  0  0  0  0  0  0
   39.3340   40.3610   30.1770 C   0  0  0  0  0  0  0  0  0  0  0  0
   36.8310   40.9930   26.4710 C   0  0  0  0  0  0  0  0  0  0  0  0
   37.8370   40.0260   25.8980 C   0  0  0  0  0  0  0  0  0  0  0  0
   38.8960   41.9960   26.9750 O   0  0  0  0  0  0  0  0  0  0  0  0
   38.8530   41.4140   30.0740 O   0  0  0  0  0  0  0  0  0  0  0  0
   36.7050   39.7250   26.6900 O   0  0  0  0  0  0  0  0  0  0  0  0
   40.0070   38.1900   31.2340 C   0  0  0  0  0  0  0  0  0  0  0  0
  2  3  1  0
  2 18  1  0
  4 11  2  0
  6  5  1  0
  6 18  1  0
  7 15  1  0
  8 10  1  0
  9  8  1  0
  9 11  1  0
  9 12  1  0
 11  2  1  0
 12  6  1  0
 13  1  1  0
 13 17  1  0
 14 13  1  0
 14 17  1  0
 14 10  1  0
 15  8  1  0
 16 12  2  0
M  END
$$$$

     RDKit          3D

  9 10  0  0  0  0  0  0  0  0999 V2000
   39.0600   38.5340   30.2880 N   0  0  0  0  0  0  0  0  0  0  0  0
   39.4220   41.1240   27.9010 N   0  0  0  0  0  0  0  0  0  0  0  0
   39.3290   41.3880   26.5340 C   0  0  0  0  0  0  0  0  0  0  0  0
   38.5200   40.5080   27.4750 C   0  0  0  0  0  0  0  0  0  0  0  0
   40.7520   41.2880   25.9300 N   0  0  0  0  0  0  0  0  0  0  0  0
   39.0010   39.4380   29.2260 C   0  0  0  0  0  0  0  0  0  0  0  0
   37.9770   39.5300   28.2630 C   0  0  0  0  0  0  0  0  0  0  0  0
   38.2030   42.5260   25.6720 S   0  0  0  0  0  0  0  0  0  0  0  0
   39.9430   40.3560   28.9340 N   0  0  0  0  0  0  0  0  0  0  0  0
  2  9  1  0
  3  8  1  0
  3  4  1  0
  3  2  1  0
  4  2  1  0
  4  7  1  0
  5  3  1  0
  6  1  1  0
  7  6  1  0
  9  6  1  0
M  END
$$$$

     RDKit          3D

 11 11  0  0  0  0  0  0  0  0999 V2000
   38.3600   42.1430   27.4420 C   0  0  0  0  0  0  0  0  0  0  0  0
   40.6930   41.0600   29.9990 O   0  0  0  0  0  0  0  0  0  0  0  0
   37.7740   41.1470   26.7010 C   0  0  0  0  0  0  0  0  0  0  0  0
   36.7210   41.5390   25.8390 O   0  0  0  0  0  0  0  0  0  0  0  0
   37.9050   43.4500   27.0630 O   0  0  0  0  0  0  0  0  0  0  0  0
   39.0360   39.2360   27.4780 C   0  0  0  0  0  0  0  0  0  0  0  0
   39.2720   42.0410   28.4590 C   0  0  0  0  0  0  0  0  0  0  0  0
   38.1200   39.8200   26.6860 C   0  0  0  0  0  0  0  0  0  0  0  0
   39.8920   40.9210   28.9570 C   0  0  0  0  0  0  0  0  0  0  0  0
   37.5930   39.0310   25.7160 O   0  0  0  0  0  0  0  0  0  0  0  0
   39.7870   39.6510   28.4350 C   0  0  0  0  0  0  0  0  0  0  0  0
  1  7  1  0
  3  1  2  0
  4  3  1  0
  5  1  1  0
  6 11  1  0
  7  9  1  0
  8  3  1  0
  8  6  2  0
  9  2  1  0
 10  8  1  0
 11  9  2  0
M  END
$$$$

     RDKit          3D

 22 23  0  0  0  0  0  0  0  0999 V2000
   33.4740   41.9660   23.8050 C   0  0  0  0  0  0  0  0  0  0  0  0
   34.8670   41.5390   23.2370 C   0  0  0  0  0  0  0  0  0  0  0  0
   39.4890   37.9650   30.5490 C   0  0  0  0  0  0  0  0  0  0  0  0
   35.3760   42.3600   25.4990 N   0  0  0  0  0  0  0  0  0  0  0  0
   35.6570   41.3830   24.6000 C   0  0  0  0  0  0  0  0  0  0  0  0
   38.6080   39.8950   24.0250 C   0  0  0  0  0  0  0  0  0  0  0  0
   31.2870   41.4130   24.9690 O   0  0  0  0  0  0  0  0  0  0  0  0
   39.5680   40.1420   30.0310 C   0  0  0  0  0  0  0  0  0  0  0  0
   36.5450   42.5220   24.7960 C   0  0  0  0  0  0  0  0  0  0  0  0
   38.4290   40.1280   25.6240 C   0  0  0  0  0  0  0  0  0  0  0  0
   38.6630   41.6920   25.3860 O   0  0  0  0  0  0  0  0  0  0  0  0
   32.7340   41.6620   25.1590 C   0  0  0  0  0  0  0  0  0  0  0  0
   38.0430   40.0500   28.1110 C   0  0  0  0  0  0  0  0  0  0  0  0
   39.0710   41.3370   29.5960 O   0  0  0  0  0  0  0  0  0  0  0  0
   38.2460   38.6270   28.5910 N   0  0  0  0  0  0  0  0  0  0  0  0
   38.7430   40.1660   27.1670 N   0  0  0  0  0  0  0  0  0  0  0  0
   38.0240   41.8560   24.2340 C   0  0  0  0  0  0  0  0  0  0  0  0
   37.5910   38.1460   25.3350 O   0  0  0  0  0  0  0  0  0  0  0  0
   39.1550   38.9420   29.6440 N   0  0  0  0  0  0  0  0  0  0  0  0
   37.5840   40.7330   23.7110 C   0  0  0  0  0  0  0  0  0  0  0  0
   39.6070   40.2810   22.9050 O   0  0  0  0  0  0  0  0  0  0  0  0
   37.4240   39.0950   25.8880 O   0  0  0  0  0  0  0  0  0  0  0  0
  1 12  1  0
  2  1  1  0
  5  2  1  0
  5  9  1  0
  5  4  1  0
  6 21  1  0
  6 10  1  0
  7 12  1  0
  9  4  1  0
 10 22  1  0
 10 16  1  0
 11 10  1  0
 13 15  1  0
 14  8  1  0
 15 19  1  0
 16 13  1  0
 17 20  1  0
 17  9  1  0
 17 11  1  0
 18 22  1  0
 19  8  1  0
 19  3  1  0
 20  6  1  0
M  END
$$$$

     RDKit          3D

  6  5  0  0  0  0  0  0  0  0999 V2000
   39.6980   40.2680   28.5910 C   0  0  0  0  0  0  0  0  0  0  0  0
   38.7820   39.7070   29.4620 N   0  0  0  0  0  0  0  0  0  0  0  0
   39.8070   40.2330   26.1730 O   0  0  0  0  0  0  0  0  0  0  0  0
   38.1210   41.3030   27.2210 O   0  0  0  0  0  0  0  0  0  0  0  0
   39.1780   40.6130   27.2120 C   0  0  0  0  0  0  0  0  0  0  0  0
   40.9890   40.5470   28.9150 N   0  0  0  0  0  0  0  0  0  0  0  0
  1  6  2  0
  1  2  1  0
  3  5  2  0
  5  4  1  0
  5  1  1  0
M  END
$$$$
