
     RDKit          3D

  8  7  0  0  0  0  0  0  0  0999 V2000
   36.8390   39.1430   26.1830 C   0  0  0  0  0  0  0  0  0  0  0  0
   37.1060   41.0580   24.6930 O   0  0  0  0  0  0  0  0  0  0  0  0
   39.0990   40.1940   25.6850 C   0  0  0  0  0  0  0  0  0  0  0  0
   39.6420   39.4260   26.6710 N   0  0  0  0  0  0  0  0  0  0  0  0
   37.6640   40.2820   25.6440 C   0  0  0  0  0  0  0  0  0  0  0  0
   40.3830   42.5230   25.3730 C   0  0  0  0  0  0  0  0  0  0  0  0
   39.8350   39.6740   24.6370 O   0  0  0  0  0  0  0  0  0  0  0  0
   39.2000   41.6770   25.9120 C   0  0  0  0  0  0  0  0  0  0  0  0
  2  5  1  0
  3  7  1  0
  3  8  1  0
  3  4  1  0
  5  3  1  0
  5  1  1  0
  6  8  1  0
M  END
$$$$

     RDKit          3D

 15 15  0  0  0  0  0  0  0  0999 V2000
   37.1190   40.9390   25.9220 N   0  0  0  0  0  0  0  0  0  0  0  0
   40.8480   40.0900   24.2100 C   0  0  0  0  0  0  0  0  0  0  0  0
   36.9210   38.7020   23.6670 O   0  0  0  0  0  0  0  0  0  0  0  0
   31.1470   40.4060   24.3890 C   0  0  0  0  0  0  0  0  0  0  0  0
   36.7870   38.9390   25.0090 C   0  0  0  0  0  0  0  0  0  0  0  0
   34.8020   40.2810   23.8960 S   0  0  0  0  0  0  0  0  0  0  0  0
   39.4860   40.1450   25.9490 C   0  0  0  0  0  0  0  0  0  0  0  0
   41.5980   39.9580   25.3540 C   0  0  0  0  0  0  0  0  0  0  0  0
   40.6840   39.8850   26.4530 N   0  0  0  0  0  0  0  0  0  0  0  0
   33.3680   39.7050   24.8720 C   0  0  0  0  0  0  0  0  0  0  0  0
   35.9600   40.1440   25.2780 C   0  0  0  0  0  0  0  0  0  0  0  0
   38.1270   40.1390   26.6570 C   0  0  0  0  0  0  0  0  0  0  0  0
   39.4850   40.1760   24.5540 O   0  0  0  0  0  0  0  0  0  0  0  0
   29.9760   40.4420   23.3640 C   0  0  0  0  0  0  0  0  0  0  0  0
   32.2300   39.5000   23.8810 C   0  0  0  0  0  0  0  0  0  0  0  0
  1 12  1  0
  2 13  1  0
  2  8  2  0
  3  5  1  0
  6 10  1  0
  6 11  1  0
  7  9  2  0
  7 12  1  0
  8  9  1  0
 11  5  1  0
 11  1  1  0
 13  7  1  0
 14  4  1  0
 15  4  1  0
 15 10  1  0
M  END
$$$$

     RDKit          3D

 22 24  0  0  0  0  0  0  0  0999 V2000
   30.7410   42.3280   24.4800 C   0  0  0  0  0  0  0  0  0  0  0  0
   37.7000   39.0750   26.1060 C   0  0  0  0  0  0  0  0  0  0  0  0
   30.7590   43.1830   23.4530 C   0  0  0  0  0  0  0  0  0  0  0  0
   34.9570   39.8310   23.6550 N   0  0  0  0  0  0  0  0  0  0  0  0
   36.0170   39.1900   24.4690 C   0  0  0  0  0  0  0  0  0  0  0  0
   38.2350   36.6870   26.6350 O   0  0  0  0  0  0  0  0  0  0  0  0
   37.9090   37.8770   27.0950 C   0  0  0  0  0  0  0  0  0  0  0  0
   37.9980   37.7160   28.2900 C   0  0  0  0  0  0  0  0  0  0  0  0
   34.0340   39.2730   22.6490 C   0  0  0  0  0  0  0  0  0  0  0  0
   37.9600   38.3550   24.8090 C   0  0  0  0  0  0  0  0  0  0  0  0
   38.7020   40.0180   26.5920 C   0  0  0  0  0  0  0  0  0  0  0  0
   39.7380   38.4740   22.4150 O   0  0  0  0  0  0  0  0  0  0  0  0
   32.5530   39.2710   23.1260 C   0  0  0  0  0  0  0  0  0  0  0  0
   31.6130   42.9200   22.3350 C   0  0  0  0  0  0  0  0  0  0  0  0
   31.9990   40.7010   23.2210 C   0  0  0  0  0  0  0  0  0  0  0  0
   38.2960   40.3800   27.8960 N   0  0  0  0  0  0  0  0  0  0  0  0
   36.5280   37.8980   24.4410 O   0  0  0  0  0  0  0  0  0  0  0  0
   32.2420   41.6520   22.2230 C   0  0  0  0  0  0  0  0  0  0  0  0
   39.2780   37.8670   24.5620 O   0  0  0  0  0  0  0  0  0  0  0  0
   31.2800   41.0530   24.3690 C   0  0  0  0  0  0  0  0  0  0  0  0
   38.6770   38.8750   23.3990 S   0  0  0  0  0  0  0  0  0  0  0  0
   36.3800   39.9230   25.7840 C   0  0  0  0  0  0  0  0  0  0  0  0
  2 11  1  0
  2  7  1  0
  3  1  2  0
  5  4  1  0
  5 22  1  0
  6  7  1  0
  7  8  2  0
  9 13  1  0
  9  4  1  0
 10 17  1  0
 10  2  1  0
 11 16  1  0
 13 15  1  0
 14  3  1  0
 15 20  2  0
 17  5  1  0
 18 14  2  0
 18 15  1  0
 19 10  1  0
 20  1  1  0
 21 12  1  0
 21 19  1  0
 21 10  1  0
 22  2  1  0
M  END
$$$$

     RDKit          3D

 11 11  0  0  0  0  0  0  0  0999 V2000
   37.1290   38.5830   24.8860 C   0  0  0  0  0  0  0  0  0  0  0  0
   37.9290   40.0120   23.1590 C   0  0  0  0  0  0  0  0  0  0  0  0
   39.1430   40.0090   22.2070 C   0  0  0  0  0  0  0  0  0  0  0  0
   38.0840   38.9040   24.0130 N   0  0  0  0  0  0  0  0  0  0  0  0
   37.3330   37.6540   25.7320 O   0  0  0  0  0  0  0  0  0  0  0  0
   35.6650   41.3520   23.7750 C   0  0  0  0  0  0  0  0  0  0  0  0
   40.1620   38.9940   22.6980 C   0  0  0  0  0  0  0  0  0  0  0  0
   35.8730   39.2550   24.8240 C   0  0  0  0  0  0  0  0  0  0  0  0
   34.9830   42.6940   23.7600 C   0  0  0  0  0  0  0  0  0  0  0  0
   37.0230   41.1320   23.2990 C   0  0  0  0  0  0  0  0  0  0  0  0
   35.1190   40.3120   24.4170 C   0  0  0  0  0  0  0  0  0  0  0  0
  1  5  2  0
  2  3  1  0
  2 10  1  0
  2  4  1  0
  3  7  1  0
  4  1  1  0
  6 11  1  0
  8  1  1  0
  9  6  1  0
 10  6  2  0
 11  8  2  0
M  END
$$$$

     RDKit          3D

 17 17  0  0  0  0  0  0  0  0999 V2000
   41.6380   40.7130   25.4980 O   0  0  0  0  0  0  0  0  0  0  0  0
   38.7160   38.0850   26.7210 N   0  0  0  0  0  0  0  0  0  0  0  0
   35.1200   41.6470   24.0900 S   0  0  0  0  0  0  0  0  0  0  0  0
   38.5910   41.3620   25.0860 N   0  0  0  0  0  0  0  0  0  0  0  0
   34.5370   42.1120   22.6090 C   0  0  0  0  0  0  0  0  0  0  0  0
   35.8580   40.2260   23.8410 C   0  0  0  0  0  0  0  0  0  0  0  0
   37.0200   39.5320   25.8590 C   0  0  0  0  0  0  0  0  0  0  0  0
   33.6100   43.8420   22.2180 Br  0  0  0  0  0  0  0  0  0  0  0  0
   34.5870   41.2550   21.5550 C   0  0  0  0  0  0  0  0  0  0  0  0
   40.5780   40.1460   25.9230 C   0  0  0  0  0  0  0  0  0  0  0  0
   39.3080   40.0790   25.1810 C   0  0  0  0  0  0  0  0  0  0  0  0
   36.1760   38.9750   24.7340 C   0  0  0  0  0  0  0  0  0  0  0  0
   35.0090   39.8570   22.0590 C   0  0  0  0  0  0  0  0  0  0  0  0
   40.5340   39.6870   27.0830 O   0  0  0  0  0  0  0  0  0  0  0  0
   38.3790   38.9990   25.6100 C   0  0  0  0  0  0  0  0  0  0  0  0
   36.1970   39.6590   22.4530 C   0  0  0  0  0  0  0  0  0  0  0  0
   38.1190   41.7690   26.3470 C   0  0  0  0  0  0  0  0  0  0  0  0
  1 10  2  0
  4 17  1  0
  5  8  1  0
  5  3  1  0
  6  3  1  0
  6 12  1  0
  9 13  1  0
  9  5  1  0
 10 14  1  0
 11  4  1  0
 11 15  1  0
 11 10  1  0
 12  7  1  0
 13 16  1  0
 15  7  1  0
 15  2  1  0
 16  6  1  0
M  END
$$$$

     RDKit          3D

 11 11  0  0  0  0  0  0  0  0999 V2000
   36.0810   42.0390   24.4760 C   0  0  0  0  0  0  0  0  0  0  0  0
   37.2420   38.0800   24.1890 O   0  0  0  0  0  0  0  0  0  0  0  0
   36.9040   39.2480   24.5140 C   0  0  0  0  0  0  0  0  0  0  0  0
   37.2980   41.7060   24.9270 C   0  0  0  0  0  0  0  0  0  0  0  0
   39.3410   40.4350   25.5930 S   0  0  0  0  0  0  0  0  0  0  0  0
   35.1940   40.9600   24.2010 C   0  0  0  0  0  0  0  0  0  0  0  0
   35.6000   39.6280   24.2180 C   0  0  0  0  0  0  0  0  0  0  0  0
   39.4990   41.7860   26.3820 O   0  0  0  0  0  0  0  0  0  0  0  0
   39.6680   39.7640   27.0680 O   0  0  0  0  0  0  0  0  0  0  0  0
   37.6820   40.3820   25.1520 C   0  0  0  0  0  0  0  0  0  0  0  0
   40.6390   40.0500   24.4880 O   0  0  0  0  0  0  0  0  0  0  0  0
  1  4  2  0
  2  3  2  0
  3 10  1  0
  4 10  1  0
  5  8  1  0
  5  9  1  0
  6  7  2  0
  6  1  1  0
  7  3  1  0
 10  5  1  0
 11  5  1  0
M  END
$$$$

     RDKit          3D

 13 13  0  0  0  0  0  0  0  0999 V2000
   39.3680   39.4910   21.7920 S   0  0  0  0  0  0  0  0  0  0  0  0
   38.6050   38.9050   27.3100 O   0  0  0  0  0  0  0  0  0  0  0  0
   40.4810   40.4070   22.2170 C   0  0  0  0  0  0  0  0  0  0  0  0
   38.9890   40.1540   24.2360 C   0  0  0  0  0  0  0  0  0  0  0  0
   38.3120   39.5520   23.1320 C   0  0  0  0  0  0  0  0  0  0  0  0
   40.3810   40.2780   26.9810 O   0  0  0  0  0  0  0  0  0  0  0  0
   37.0340   40.1320   25.9210 C   0  0  0  0  0  0  0  0  0  0  0  0
   40.4320   40.7180   23.7850 S   0  0  0  0  0  0  0  0  0  0  0  0
   39.2620   39.7220   26.7570 C   0  0  0  0  0  0  0  0  0  0  0  0
   36.5130   38.8100   26.3540 C   0  0  0  0  0  0  0  0  0  0  0  0
   38.7680   42.0180   25.9280 N   0  0  0  0  0  0  0  0  0  0  0  0
   38.5410   40.5400   25.7110 C   0  0  0  0  0  0  0  0  0  0  0  0
   36.9350   39.0810   22.8990 C   0  0  0  0  0  0  0  0  0  0  0  0
  1  3  1  0
  1  5  1  0
  3  8  1  0
  4 12  1  0
  5  4  2  0
  7 10  1  0
  8  4  1  0
  9  6  2  0
  9  2  1  0
 12  7  1  0
 12 11  1  0
 12  9  1  0
 13  5  1  0
M  END
$$$$

     RDKit          3D

  4  3  0  0  0  0  0  0  0  0999 V2000
   38.9790   39.6930   25.4140 O   0  0  0  0  0  0  0  0  0  0  0  0
   37.8220   39.2890   25.1040 C   0  0  0  0  0  0  0  0  0  0  0  0
   37.0360   38.5820   26.1860 C   0  0  0  0  0  0  0  0  0  0  0  0
   37.2320   39.4280   23.6920 C   0  0  0  0  0  0  0  0  0  0  0  0
  2  1  2  0
  2  3  1  0
  4  2  1  0
M  END
$$$$

     RDKit          3D

 15 17  0  0  0  0  0  0  0  0999 V2000
   36.8320   40.4440   25.1440 S   0  0  0  0  0  0  0  0  0  0  0  0
   38.7960   37.4470   28.2090 C   0  0  0  0  0  0  0  0  0  0  0  0
   37.0320   39.0620   26.1470 C   0  0  0  0  0  0  0  0  0  0  0  0
   39.2710   38.7730   26.4000 C   0  0  0  0  0  0  0  0  0  0  0  0
   39.0440   38.1550   26.8930 N   0  0  0  0  0  0  0  0  0  0  0  0
   35.3990   39.1670   23.3550 C   0  0  0  0  0  0  0  0  0  0  0  0
   34.2260   38.9710   22.6570 C   0  0  0  0  0  0  0  0  0  0  0  0
   36.6740   38.0740   23.3910 S   0  0  0  0  0  0  0  0  0  0  0  0
   37.3530   37.4420   28.1800 C   0  0  0  0  0  0  0  0  0  0  0  0
   36.6090   38.2230   27.3270 C   0  0  0  0  0  0  0  0  0  0  0  0
   35.5320   40.3340   24.1970 C   0  0  0  0  0  0  0  0  0  0  0  0
   34.5010   41.2990   24.3030 C   0  0  0  0  0  0  0  0  0  0  0  0
   33.3630   41.0860   23.4720 C   0  0  0  0  0  0  0  0  0  0  0  0
   33.1990   39.9330   22.6730 C   0  0  0  0  0  0  0  0  0  0  0  0
   37.5200   38.5110   24.7550 C   0  0  0  0  0  0  0  0  0  0  0  0
  1 11  1  0
  1  3  1  0
  3 10  1  0
  4  5  3  0
  5  2  1  0
  6  8  1  0
  6 11  1  0
  7 14  1  0
  7  6  2  0
  9  2  1  0
 10  9  2  3
 11 12  2  0
 13 12  1  0
 14 13  2  0
 15  8  1  0
 15  1  1  0
 15  3  1  0
M  END
$$$$

     RDKit          3D

 10 10  0  0  0  0  0  0  0  0999 V2000
   43.0290   40.7970   26.5950 O   0  0  0  0  0  0  0  0  0  0  0  0
   38.4630   39.5380   24.5590 C   0  0  0  0  0  0  0  0  0  0  0  0
   38.0140   40.3330   26.8590 C   0  0  0  0  0  0  0  0  0  0  0  0
   41.8640   41.1530   26.4320 C   0  0  0  0  0  0  0  0  0  0  0  0
   41.7630   42.0580   25.2380 C   0  0  0  0  0  0  0  0  0  0  0  0
   37.3660   39.8080   25.5930 C   0  0  0  0  0  0  0  0  0  0  0  0
   39.7430   40.1600   25.1250 C   0  0  0  0  0  0  0  0  0  0  0  0
   39.4480   40.4220   26.5340 N   0  0  0  0  0  0  0  0  0  0  0  0
   36.3790   38.8340   25.8310 O   0  0  0  0  0  0  0  0  0  0  0  0
   40.6420   40.7090   27.3070 C   0  0  0  0  0  0  0  0  0  0  0  0
  2  7  1  0
  2  6  1  0
  4  1  2  0
  4 10  1  0
  5  4  1  0
  6  9  1  0
  6  3  1  0
  7  8  1  0
  8  3  1  0
  8 10  1  0
M  END
$$$$

     RDKit          3D

 14 14  0  0  0  0  0  0  0  0999 V2000
   39.3690   39.1880   23.8660 C   0  0  0  0  0  0  0  0  0  0  0  0
   37.5460   39.9040   25.6560 C   0  0  0  0  0  0  0  0  0  0  0  0
   37.8180   38.8120   20.6120 N   0  0  0  0  0  0  0  0  0  0  0  0
   37.2330   39.1800   24.6360 C   0  0  0  0  0  0  0  0  0  0  0  0
   36.4180   38.1730   24.4760 O   0  0  0  0  0  0  0  0  0  0  0  0
   37.9500   39.6370   23.4560 C   0  0  0  0  0  0  0  0  0  0  0  0
   39.5970   40.4920   24.7480 C   0  0  0  0  0  0  0  0  0  0  0  0
   37.3590   38.2330   27.4410 O   0  0  0  0  0  0  0  0  0  0  0  0
   40.6000   40.4920   26.9390 N   0  0  0  0  0  0  0  0  0  0  0  0
   37.1510   39.8330   21.0950 C   0  0  0  0  0  0  0  0  0  0  0  0
   37.5140   40.3750   22.3090 O   0  0  0  0  0  0  0  0  0  0  0  0
   37.5620   39.6420   27.1020 C   0  0  0  0  0  0  0  0  0  0  0  0
   39.3230   41.1620   26.8130 C   0  0  0  0  0  0  0  0  0  0  0  0
   38.6480   40.9710   25.4370 C   0  0  0  0  0  0  0  0  0  0  0  0
  1  7  1  0
  2 12  1  0
  3 10  2  0
  4  5  1  0
  4  2  1  0
  6 11  1  0
  6  1  1  0
  6  4  1  0
  7 14  1  0
 10 11  1  0
 12  8  1  0
 13  9  1  0
 14  2  1  0
 14 13  1  0
M  END
$$$$

     RDKit          3D

 18 20  0  0  0  0  0  0  0  0999 V2000
   38.2330   38.4690   28.7910 C   0  0  0  0  0  0  0  0  0  0  0  0
   37.3380   39.7430   25.7890 C   0  0  0  0  0  0  0  0  0  0  0  0
   38.2080   36.9730   28.6170 C   0  0  0  0  0  0  0  0  0  0  0  0
   36.7700   39.1480   24.5150 C   0  0  0  0  0  0  0  0  0  0  0  0
   36.1380   39.3380   21.7650 O   0  0  0  0  0  0  0  0  0  0  0  0
   34.5400   40.3540   24.9020 C   0  0  0  0  0  0  0  0  0  0  0  0
   39.5260   38.6570   26.1250 N   0  0  0  0  0  0  0  0  0  0  0  0
   37.7590   39.3540   23.3940 C   0  0  0  0  0  0  0  0  0  0  0  0
   33.2260   41.0900   22.9580 C   0  0  0  0  0  0  0  0  0  0  0  0
   37.1340   39.1370   28.1400 O   0  0  0  0  0  0  0  0  0  0  0  0
   38.8260   39.8620   25.6760 C   0  0  0  0  0  0  0  0  0  0  0  0
   39.2720   39.9560   23.9090 S   0  0  0  0  0  0  0  0  0  0  0  0
   34.2100   40.5860   22.1350 C   0  0  0  0  0  0  0  0  0  0  0  0
   35.3760   40.0320   22.7220 C   0  0  0  0  0  0  0  0  0  0  0  0
   36.9000   38.7460   26.8060 C   0  0  0  0  0  0  0  0  0  0  0  0
   37.2550   38.8590   22.1750 N   0  0  0  0  0  0  0  0  0  0  0  0
   33.4170   40.9800   24.3320 C   0  0  0  0  0  0  0  0  0  0  0  0
   35.5270   39.9130   24.0430 C   0  0  0  0  0  0  0  0  0  0  0  0
  2 15  1  0
  3  1  1  0
  4 18  1  0
  4  2  1  0
  5 16  1  0
  5 14  1  0
  8 16  1  0
  8 12  1  0
  8  4  1  0
  9 17  2  0
 10  1  1  0
 11  2  1  0
 11  7  1  0
 12 11  1  0
 13 14  2  0
 13  9  1  0
 14 18  1  0
 15 10  1  0
 17  6  1  0
 18  6  2  0
M  END
$$$$

     RDKit          3D

 11 11  0  0  0  0  0  0  0  0999 V2000
   37.7560   38.9980   20.1910 O   0  0  0  0  0  0  0  0  0  0  0  0
   38.1760   39.4780   22.4180 O   0  0  0  0  0  0  0  0  0  0  0  0
   36.6100   42.1030   23.4120 C   0  0  0  0  0  0  0  0  0  0  0  0
   36.8820   39.9160   21.8240 C   0  0  0  0  0  0  0  0  0  0  0  0
   36.9590   41.0820   24.4970 C   0  0  0  0  0  0  0  0  0  0  0  0
   36.2380   41.3040   22.0500 C   0  0  0  0  0  0  0  0  0  0  0  0
   36.7270   38.7160   24.8480 C   0  0  0  0  0  0  0  0  0  0  0  0
   37.7670   43.0310   23.1240 C   0  0  0  0  0  0  0  0  0  0  0  0
   36.7940   39.6490   20.2960 C   0  0  0  0  0  0  0  0  0  0  0  0
   35.9970   38.6100   23.5870 C   0  0  0  0  0  0  0  0  0  0  0  0
   35.9670   39.9220   24.3550 C   0  0  0  0  0  0  0  0  0  0  0  0
  1  9  1  0
  3  8  1  0
  3  5  1  0
  4  6  1  0
  4  2  1  0
  6  3  1  0
  9  4  1  0
 10 11  1  0
 10  7  1  0
 11  5  1  0
 11  7  1  0
M  END
$$$$

     RDKit          3D

  8  8  0  0  0  0  0  0  0  0999 V2000
   35.1610   41.4740   24.3270 C   0  0  0  0  0  0  0  0  0  0  0  0
   36.1020   42.5050   23.9590 C   0  0  0  0  0  0  0  0  0  0  0  0
   38.5300   38.7140   25.5140 N   0  0  0  0  0  0  0  0  0  0  0  0
   37.4690   40.2340   24.0000 N   0  0  0  0  0  0  0  0  0  0  0  0
   39.8170   39.1750   25.2580 N   0  0  0  0  0  0  0  0  0  0  0  0
   37.4530   39.2860   25.0300 C   0  0  0  0  0  0  0  0  0  0  0  0
   36.6550   41.2790   23.3210 C   0  0  0  0  0  0  0  0  0  0  0  0
   36.3780   38.9130   25.4640 O   0  0  0  0  0  0  0  0  0  0  0  0
  2  1  1  0
  4  6  1  0
  5  3  1  0
  6  8  2  0
  6  3  1  0
  7  2  1  0
  7  4  1  0
  7  1  1  0
M  END
$$$$

     RDKit          3D

 16 16  0  0  0  0  0  0  0  0999 V2000
   41.9690   40.9500   25.1300 O   0  0  0  0  0  0  0  0  0  0  0  0
   40.1690   39.6770   25.5640 N   0  0  0  0  0  0  0  0  0  0  0  0
   38.3640   38.3120   20.5150 O   0  0  0  0  0  0  0  0  0  0  0  0
   38.2770   40.9880   26.0070 C   0  0  0  0  0  0  0  0  0  0  0  0
   40.2170   38.7350   21.5760 O   0  0  0  0  0  0  0  0  0  0  0  0
   38.1240   39.3530   23.0780 C   0  0  0  0  0  0  0  0  0  0  0  0
   40.1040   42.2740   25.5350 C   0  0  0  0  0  0  0  0  0  0  0  0
   35.2720   39.7700   24.0330 C   0  0  0  0  0  0  0  0  0  0  0  0
   36.1000   40.3060   25.1610 C   0  0  0  0  0  0  0  0  0  0  0  0
   37.1140   38.4770   23.8380 C   0  0  0  0  0  0  0  0  0  0  0  0
   40.8250   40.9470   25.4380 C   0  0  0  0  0  0  0  0  0  0  0  0
   36.9570   39.0300   25.2460 C   0  0  0  0  0  0  0  0  0  0  0  0
   38.6000   39.4710   25.6240 C   0  0  0  0  0  0  0  0  0  0  0  0
   38.4300   39.0750   21.6850 P   0  0  0  0  0  0  0  0  0  0  0  0
   37.6250   40.0340   20.8290 O   0  0  0  0  0  0  0  0  0  0  0  0
   38.7620   42.0100   25.0790 C   0  0  0  0  0  0  0  0  0  0  0  0
  1 11  2  0
  2 13  1  0
  3 14  2  0
  5 14  1  0
  6 10  1  0
  8  9  1  0
  9 12  1  0
 11  7  1  0
 11  2  1  0
 12 10  1  0
 13 12  1  0
 13  4  1  0
 14  6  1  0
 15 14  1  0
 16  7  1  0
 16  4  1  0
M  END
$$$$

     RDKit          3D

  7  6  0  0  0  0  0  0  0  0999 V2000
   37.8150   38.9010   26.1280 N   0  0  0  0  0  0  0  0  0  0  0  0
   37.5940   40.3030   24.5330 C   0  0  0  0  0  0  0  0  0  0  0  0
   38.9560   41.1980   27.1470 O   0  0  0  0  0  0  0  0  0  0  0  0
   39.5550   40.4560   26.3630 C   0  0  0  0  0  0  0  0  0  0  0  0
   38.7210   39.7910   25.2850 C   0  0  0  0  0  0  0  0  0  0  0  0
   36.6060   38.4950   25.4270 C   0  0  0  0  0  0  0  0  0  0  0  0
   40.7810   39.9660   26.4720 O   0  0  0  0  0  0  0  0  0  0  0  0
  4  7  2  0
  4  3  1  0
  5  2  1  0
  5  1  1  0
  5  4  1  0
  6  1  1  0
M  END
$$$$

     RDKit          3D

 13 12  0  0  0  0  0  0  0  0999 V2000
   38.7730   39.2970   23.2670 O   0  0  0  0  0  0  0  0  0  0  0  0
   35.4960   42.7190   24.0920 O   0  0  0  0  0  0  0  0  0  0  0  0
   38.2230   39.6450   27.6530 O   0  0  0  0  0  0  0  0  0  0  0  0
   37.2740   39.4070   23.1220 P   0  0  0  0  0  0  0  0  0  0  0  0
   37.4210   42.2820   23.4700 O   0  0  0  0  0  0  0  0  0  0  0  0
   37.4050   38.5880   25.8850 N   0  0  0  0  0  0  0  0  0  0  0  0
   36.9220   39.9630   21.7220 O   0  0  0  0  0  0  0  0  0  0  0  0
   36.2260   40.3490   24.3730 C   0  0  0  0  0  0  0  0  0  0  0  0
   36.7900   37.9350   23.3580 O   0  0  0  0  0  0  0  0  0  0  0  0
   38.6650   37.3280   27.8240 C   0  0  0  0  0  0  0  0  0  0  0  0
   36.3750   41.8750   23.9340 C   0  0  0  0  0  0  0  0  0  0  0  0
   36.9540   39.9720   25.5610 C   0  0  0  0  0  0  0  0  0  0  0  0
   38.1020   38.6060   27.1550 C   0  0  0  0  0  0  0  0  0  0  0  0
  4  1  1  0
  4  9  1  0
  4  8  1  0
  5 11  2  0
  6 13  1  0
  7  4  2  0
  8 12  1  0
 11  2  1  0
 11  8  1  0
 12  6  1  0
 13  3  2  0
 13 10  1  0
M  END
$$$$

     RDKit          3D

  8  7  0  0  0  0  0  0  0  0999 V2000
   38.7920   40.3170   26.3410 S   0  0  0  0  0  0  0  0  0  0  0  0
   37.9220   40.9650   22.8270 O   0  0  0  0  0  0  0  0  0  0  0  0
   37.0680   39.2560   24.1540 C   0  0  0  0  0  0  0  0  0  0  0  0
   38.0420   38.8200   26.2760 C   0  0  0  0  0  0  0  0  0  0  0  0
   35.8940   38.7150   23.0410 S   0  0  0  0  0  0  0  0  0  0  0  0
   38.0280   37.9880   27.5240 C   0  0  0  0  0  0  0  0  0  0  0  0
   37.6070   40.5450   23.9530 C   0  0  0  0  0  0  0  0  0  0  0  0
   37.4090   38.4640   25.1270 N   0  0  0  0  0  0  0  0  0  0  0  0
  2  7  2  0
  3  8  1  0
  4  1  2  0
  4  6  1  0
  5  3  2  0
  7  3  1  0
  8  4  1  0
M  END
$$$$

     RDKit          3D

 17 18  0  0  0  0  0  0  0  0999 V2000
   39.9420   39.6280   25.8880 C   0  0  0  0  0  0  0  0  0  0  0  0
   37.4550   39.1810   26.2180 C   0  0  0  0  0  0  0  0  0  0  0  0
   37.1700   41.0070   22.1450 O   0  0  0  0  0  0  0  0  0  0  0  0
   35.5810   39.2610   21.5750 C   0  0  0  0  0  0  0  0  0  0  0  0
   38.7320   38.2230   27.7100 C   0  0  0  0  0  0  0  0  0  0  0  0
   40.9610   41.3790   24.6990 O   0  0  0  0  0  0  0  0  0  0  0  0
   34.3070   40.0870   24.4770 C   0  0  0  0  0  0  0  0  0  0  0  0
   36.6160   40.7000   23.3020 C   0  0  0  0  0  0  0  0  0  0  0  0
   36.6450   39.5340   22.6060 C   0  0  0  0  0  0  0  0  0  0  0  0
   38.8270   38.7080   26.3530 N   0  0  0  0  0  0  0  0  0  0  0  0
   39.9010   40.8400   25.0370 C   0  0  0  0  0  0  0  0  0  0  0  0
   37.0970   39.4740   24.8150 C   0  0  0  0  0  0  0  0  0  0  0  0
   34.7230   42.3450   23.1470 C   0  0  0  0  0  0  0  0  0  0  0  0
   37.5140   40.6070   24.4120 O   0  0  0  0  0  0  0  0  0  0  0  0
   35.1660   41.0450   23.6320 C   0  0  0  0  0  0  0  0  0  0  0  0
   40.6420   40.0280   27.1850 N   0  0  0  0  0  0  0  0  0  0  0  0
   36.9590   38.7070   23.6830 O   0  0  0  0  0  0  0  0  0  0  0  0
  1 10  1  0
  1 16  1  0
  2 10  1  0
  3  9  1  0
  3  8  1  0
  6 11  2  0
  8 15  1  0
  8 14  1  0
  9  4  1  0
  9  8  1  0
  9 17  1  0
 10  5  1  0
 11  1  1  0
 12  2  1  0
 13 15  1  0
 14 12  1  0
 15  7  1  0
 17 12  1  0
M  END
$$$$

     RDKit          3D

  6  5  0  0  0  0  0  0  0  0999 V2000
   36.3680   38.6030   24.6720 O   0  0  0  0  0  0  0  0  0  0  0  0
   36.4880   40.0270   24.9980 C   0  0  0  0  0  0  0  0  0  0  0  0
   39.4550   39.7050   27.0890 C   0  0  0  0  0  0  0  0  0  0  0  0
   35.8100   40.8750   23.9090 C   0  0  0  0  0  0  0  0  0  0  0  0
   38.1140   40.2770   26.7310 C   0  0  0  0  0  0  0  0  0  0  0  0
   37.8880   40.1630   25.2840 N   0  0  0  0  0  0  0  0  0  0  0  0
  1  2  1  0
  2  4  1  0
  2  6  1  0
  5  3  1  0
  6  5  1  0
M  END
$$$$
