
     RDKit          3D

  9  8  0  0  0  0  0  0  0  0999 V2000
   43.8870   35.2380   30.9370 N   0  0  0  0  0  0  0  0  0  0  0  0
   43.5330   38.1120   31.7040 O   0  0  0  0  0  0  0  0  0  0  0  0
   43.5890   36.0300   28.6390 C   0  0  0  0  0  0  0  0  0  0  0  0
   43.1960   38.5600   29.0100 C   0  0  0  0  0  0  0  0  0  0  0  0
   44.1310   37.4790   28.3630 C   0  0  0  0  0  0  0  0  0  0  0  0
   41.5830   35.9670   30.1810 C   0  0  0  0  0  0  0  0  0  0  0  0
   42.9490   38.7580   30.5450 C   0  0  0  0  0  0  0  0  0  0  0  0
   40.9230   34.5820   30.4580 C   0  0  0  0  0  0  0  0  0  0  0  0
   43.1140   35.6890   29.9920 C   0  0  0  0  0  0  0  0  0  0  0  0
  3  9  1  0
  4  7  2  3
  5  3  1  0
  5  4  1  0
  6  8  1  0
  7  2  1  0
  9  6  1  0
  9  1  2  0
M  END
$$$$

     RDKit          3D

 14 15  0  0  0  0  0  0  0  0999 V2000
   40.8880   39.0960   32.0060 C   0  0  0  0  0  0  0  0  0  0  0  0
   41.2390   40.3840   32.5640 N   0  0  0  0  0  0  0  0  0  0  0  0
   43.2020   35.5190   29.2580 N   0  0  0  0  0  0  0  0  0  0  0  0
   42.2400   36.3260   31.2180 C   0  0  0  0  0  0  0  0  0  0  0  0
   40.0600   38.1270   31.7450 C   0  0  0  0  0  0  0  0  0  0  0  0
   42.5040   41.1030   32.4900 C   0  0  0  0  0  0  0  0  0  0  0  0
   43.2650   36.9970   29.2760 C   0  0  0  0  0  0  0  0  0  0  0  0
   42.7870   37.5320   30.7660 C   0  0  0  0  0  0  0  0  0  0  0  0
   43.3520   39.3210   31.3300 C   0  0  0  0  0  0  0  0  0  0  0  0
   43.5490   40.4880   31.9820 C   0  0  0  0  0  0  0  0  0  0  0  0
   42.1180   35.3800   30.2670 C   0  0  0  0  0  0  0  0  0  0  0  0
   39.8160   37.1040   30.7600 O   0  0  0  0  0  0  0  0  0  0  0  0
   42.2460   38.6990   31.4660 C   0  0  0  0  0  0  0  0  0  0  0  0
   39.4300   38.4590   32.6480 C   0  0  0  0  0  0  0  0  0  0  0  0
  1  2  1  0
  3  7  1  0
  3 11  1  0
  5  1  1  0
  5 14  2  0
  6  2  2  0
  7  8  1  0
  8  4  1  0
  8 13  1  0
  9 13  1  0
  9 10  2  0
 10  6  1  0
 11  4  1  0
 12  5  1  0
 13  1  2  0
M  END
$$$$

     RDKit          3D

  7  6  0  0  0  0  0  0  0  0999 V2000
   42.2650   36.1870   30.0480 C   0  0  0  0  0  0  0  0  0  0  0  0
   44.3570   34.9380   30.1110 N   0  0  0  0  0  0  0  0  0  0  0  0
   43.5440   35.8820   29.3010 C   0  0  0  0  0  0  0  0  0  0  0  0
   41.8310   38.3290   29.3830 O   0  0  0  0  0  0  0  0  0  0  0  0
   41.3730   35.3340   30.2050 O   0  0  0  0  0  0  0  0  0  0  0  0
   44.5230   36.9780   28.8660 C   0  0  0  0  0  0  0  0  0  0  0  0
   42.0470   37.5810   30.5700 C   0  0  0  0  0  0  0  0  0  0  0  0
  1  5  2  0
  1  7  1  0
  3  6  1  0
  3  1  1  0
  3  2  1  0
  4  7  1  0
M  END
$$$$

     RDKit          3D

  9  9  0  0  0  0  0  0  0  0999 V2000
   45.1180   36.1080   30.7220 S   0  0  0  0  0  0  0  0  0  0  0  0
   42.5610   36.4030   30.2530 C   0  0  0  0  0  0  0  0  0  0  0  0
   43.6120   36.9520   31.2110 C   0  0  0  0  0  0  0  0  0  0  0  0
   41.4820   37.8540   29.4460 Br  0  0  0  0  0  0  0  0  0  0  0  0
   43.9060   36.6900   28.1730 C   0  0  0  0  0  0  0  0  0  0  0  0
   41.2760   34.4320   30.8440 C   0  0  0  0  0  0  0  0  0  0  0  0
   44.3450   37.8220   28.8790 N   0  0  0  0  0  0  0  0  0  0  0  0
   42.2930   35.1030   30.1510 N   0  0  0  0  0  0  0  0  0  0  0  0
   45.0310   36.4780   29.0220 C   0  0  0  0  0  0  0  0  0  0  0  0
  1  3  1  0
  2  4  1  0
  2  3  1  0
  5  7  1  0
  5  9  1  0
  7  9  1  0
  8  2  1  0
  8  6  1  0
  9  1  1  0
M  END
$$$$

     RDKit          3D

  9  9  0  0  0  0  0  0  0  0999 V2000
   41.8360   37.6580   28.4840 O   0  0  0  0  0  0  0  0  0  0  0  0
   41.5490   36.3400   26.5070 C   0  0  0  0  0  0  0  0  0  0  0  0
   42.5650   36.8060   27.5400 C   0  0  0  0  0  0  0  0  0  0  0  0
   43.2330   37.4650   31.1490 N   0  0  0  0  0  0  0  0  0  0  0  0
   41.3030   35.1220   31.1690 O   0  0  0  0  0  0  0  0  0  0  0  0
   42.3510   37.2000   29.8840 C   0  0  0  0  0  0  0  0  0  0  0  0
   43.0370   35.9130   29.6150 C   0  0  0  0  0  0  0  0  0  0  0  0
   42.6400   34.9130   30.7150 C   0  0  0  0  0  0  0  0  0  0  0  0
   43.0370   35.6670   28.1990 N   0  0  0  0  0  0  0  0  0  0  0  0
  1  6  1  0
  3  2  1  0
  3  9  1  0
  3  1  1  0
  6  4  1  0
  7  6  1  0
  7  8  1  0
  8  5  1  0
  9  7  1  0
M  END
$$$$

     RDKit          3D

 12 11  0  0  0  0  0  0  0  0999 V2000
   43.4890   40.3040   26.7200 Br  0  0  0  0  0  0  0  0  0  0  0  0
   41.5870   36.7900   31.1700 C   0  0  0  0  0  0  0  0  0  0  0  0
   42.8600   38.7150   26.6480 C   0  0  0  0  0  0  0  0  0  0  0  0
   45.8860   37.9660   28.9930 O   0  0  0  0  0  0  0  0  0  0  0  0
   42.0280   36.6450   29.1370 N   0  0  0  0  0  0  0  0  0  0  0  0
   43.1390   36.7060   28.2660 C   0  0  0  0  0  0  0  0  0  0  0  0
   45.3910   38.2010   27.4940 C   0  0  0  0  0  0  0  0  0  0  0  0
   43.9050   35.6900   28.2340 O   0  0  0  0  0  0  0  0  0  0  0  0
   41.7470   35.9960   30.2010 C   0  0  0  0  0  0  0  0  0  0  0  0
   41.6030   34.7290   30.3240 N   0  0  0  0  0  0  0  0  0  0  0  0
   41.0370   37.8830   30.5330 O   0  0  0  0  0  0  0  0  0  0  0  0
   43.8030   37.8800   27.4260 C   0  0  0  0  0  0  0  0  0  0  0  0
  3  1  1  0
  5  9  1  0
  6  5  1  0
  7  4  1  0
  8  6  2  0
  9 10  2  0
  9  2  1  0
 11  2  1  0
 12  3  1  0
 12  7  1  0
 12  6  1  0
M  END
$$$$

     RDKit          3D

  7  6  0  0  0  0  0  0  0  0999 V2000
   42.8810   36.0030   30.5220 C   0  0  0  0  0  0  0  0  0  0  0  0
   43.8640   36.8160   31.0350 C   0  0  0  0  0  0  0  0  0  0  0  0
   41.7550   36.2480   28.5880 C   0  0  0  0  0  0  0  0  0  0  0  0
   41.3980   37.7880   30.7460 O   0  0  0  0  0  0  0  0  0  0  0  0
   41.8380   36.7700   27.4330 C   0  0  0  0  0  0  0  0  0  0  0  0
   41.5300   36.5030   30.1470 C   0  0  0  0  0  0  0  0  0  0  0  0
   43.0620   34.8330   30.3470 O   0  0  0  0  0  0  0  0  0  0  0  0
  1  2  1  0
  3  6  1  0
  5  3  2  0
  6  1  1  0
  6  4  1  0
  7  1  2  0
M  END
$$$$

     RDKit          3D

 13 12  0  0  0  0  0  0  0  0999 V2000
   41.2660   34.1090   31.1330 C   0  0  0  0  0  0  0  0  0  0  0  0
   43.1000   37.1120   30.1080 C   0  0  0  0  0  0  0  0  0  0  0  0
   44.3080   35.6570   28.3680 O   0  0  0  0  0  0  0  0  0  0  0  0
   42.7490   38.8000   27.5780 O   0  0  0  0  0  0  0  0  0  0  0  0
   44.5880   37.1660   25.7540 Br  0  0  0  0  0  0  0  0  0  0  0  0
   42.2150   35.3270   30.3490 P   0  0  0  0  0  0  0  0  0  0  0  0
   43.9030   37.9940   28.0930 P   0  0  0  0  0  0  0  0  0  0  0  0
   41.8350   38.0070   30.3350 C   0  0  0  0  0  0  0  0  0  0  0  0
   43.7250   36.7050   28.7480 C   0  0  0  0  0  0  0  0  0  0  0  0
   43.5980   34.6110   31.1370 O   0  0  0  0  0  0  0  0  0  0  0  0
   45.2410   38.5130   27.8860 O   0  0  0  0  0  0  0  0  0  0  0  0
   41.2390   35.4120   28.9400 O   0  0  0  0  0  0  0  0  0  0  0  0
   44.1620   38.1790   30.5530 N   0  0  0  0  0  0  0  0  0  0  0  0
  2  8  1  0
  2  6  1  0
  2 13  1  0
  3  9  2  0
  4  7  2  0
  6  1  1  0
  6 10  1  0
  7  5  1  0
  7  9  1  0
  9  2  1  0
 11  7  1  0
 12  6  2  0
M  END
$$$$

     RDKit          3D

 10  9  0  0  0  0  0  0  0  0999 V2000
   41.4380   36.2810   29.5270 C   0  0  0  0  0  0  0  0  0  0  0  0
   42.4310   36.0010   30.5680 C   0  0  0  0  0  0  0  0  0  0  0  0
   44.1420   36.5260   28.5410 C   0  0  0  0  0  0  0  0  0  0  0  0
   42.6970   38.8710   29.8640 O   0  0  0  0  0  0  0  0  0  0  0  0
   41.7580   37.9410   29.2610 N   0  0  0  0  0  0  0  0  0  0  0  0
   43.8950   36.4470   30.0630 C   0  0  0  0  0  0  0  0  0  0  0  0
   42.6090   34.7120   31.3300 C   0  0  0  0  0  0  0  0  0  0  0  0
   44.6130   36.7250   30.9050 O   0  0  0  0  0  0  0  0  0  0  0  0
   43.3970   33.7640   30.5520 N   0  0  0  0  0  0  0  0  0  0  0  0
   45.3490   37.2090   28.0310 O   0  0  0  0  0  0  0  0  0  0  0  0
  2  1  1  0
  2  7  1  0
  3  6  1  0
  5  1  1  0
  5  4  1  0
  6  2  1  0
  6  8  2  0
  9  7  1  0
 10  3  1  0
M  END
$$$$

     RDKit          3D

 13 12  0  0  0  0  0  0  0  0999 V2000
   42.8610   36.6370   26.6420 C   0  0  0  0  0  0  0  0  0  0  0  0
   42.7940   38.1370   26.4240 C   0  0  0  0  0  0  0  0  0  0  0  0
   43.4430   35.4720   29.9410 C   0  0  0  0  0  0  0  0  0  0  0  0
   41.5080   35.0290   31.2300 C   0  0  0  0  0  0  0  0  0  0  0  0
   44.0560   38.6980   29.3280 O   0  0  0  0  0  0  0  0  0  0  0  0
   43.2560   33.4840   31.3510 C   0  0  0  0  0  0  0  0  0  0  0  0
   42.9830   34.9440   31.2300 N   0  0  0  0  0  0  0  0  0  0  0  0
   42.4820   36.5770   29.7610 N   0  0  0  0  0  0  0  0  0  0  0  0
   41.6410   38.4450   27.6950 S   0  0  0  0  0  0  0  0  0  0  0  0
   41.5760   36.0110   26.3650 O   0  0  0  0  0  0  0  0  0  0  0  0
   42.6500   38.2200   29.5540 P   0  0  0  0  0  0  0  0  0  0  0  0
   43.8510   35.6600   32.2920 C   0  0  0  0  0  0  0  0  0  0  0  0
   41.9210   38.9750   30.6020 O   0  0  0  0  0  0  0  0  0  0  0  0
  2  1  1  0
  2  9  1  0
  3  7  1  0
  4  7  1  0
  7  6  1  0
  7 12  1  0
  8  3  1  0
  9 11  1  0
 10  1  1  0
 11  5  2  0
 11  8  1  0
 11 13  1  0
M  END
$$$$

     RDKit          3D

 13 13  0  0  0  0  0  0  0  0999 V2000
   44.7080   36.9300   27.0130 C   0  0  0  0  0  0  0  0  0  0  0  0
   42.3680   36.9660   30.5520 N   0  0  0  0  0  0  0  0  0  0  0  0
   41.4250   34.3380   30.8590 C   0  0  0  0  0  0  0  0  0  0  0  0
   45.1040   36.4590   28.2800 O   0  0  0  0  0  0  0  0  0  0  0  0
   42.8540   39.1040   31.2730 N   0  0  0  0  0  0  0  0  0  0  0  0
   42.7770   37.8150   27.9550 C   0  0  0  0  0  0  0  0  0  0  0  0
   43.1970   37.8370   31.1260 C   0  0  0  0  0  0  0  0  0  0  0  0
   41.2250   35.8310   27.7400 O   0  0  0  0  0  0  0  0  0  0  0  0
   42.4400   34.6040   29.8130 N   0  0  0  0  0  0  0  0  0  0  0  0
   44.3310   37.4390   31.5630 O   0  0  0  0  0  0  0  0  0  0  0  0
   42.8880   36.0050   29.5670 C   0  0  0  0  0  0  0  0  0  0  0  0
   42.1790   36.3820   28.1900 C   0  0  0  0  0  0  0  0  0  0  0  0
   44.2980   37.6230   28.2450 C   0  0  0  0  0  0  0  0  0  0  0  0
  1 13  1  0
  1  4  1  0
  2  7  1  0
  6 12  1  0
  7  5  1  0
  7 10  2  0
  8 12  2  0
  9  3  1  0
 11 12  1  0
 11  9  1  0
 11  2  1  0
 13  6  1  0
 13  4  1  0
M  END
$$$$

     RDKit          3D

 12 12  0  0  0  0  0  0  0  0999 V2000
   45.1100   36.1450   27.5520 N   0  0  0  0  0  0  0  0  0  0  0  0
   42.9310   36.1450   29.5680 C   0  0  0  0  0  0  0  0  0  0  0  0
   45.9570   38.3960   28.3520 O   0  0  0  0  0  0  0  0  0  0  0  0
   42.3450   34.8860   30.1170 N   0  0  0  0  0  0  0  0  0  0  0  0
   42.9340   34.4610   31.4130 C   0  0  0  0  0  0  0  0  0  0  0  0
   42.8940   38.5040   30.1220 C   0  0  0  0  0  0  0  0  0  0  0  0
   42.7120   39.2590   31.1210 O   0  0  0  0  0  0  0  0  0  0  0  0
   44.7530   37.4840   28.5260 S   0  0  0  0  0  0  0  0  0  0  0  0
   42.0320   37.3820   29.8530 C   0  0  0  0  0  0  0  0  0  0  0  0
   40.8730   34.9180   30.1560 C   0  0  0  0  0  0  0  0  0  0  0  0
   43.8410   38.7990   29.2420 N   0  0  0  0  0  0  0  0  0  0  0  0
   44.2570   36.4750   29.9630 O   0  0  0  0  0  0  0  0  0  0  0  0
  2  9  1  0
  2 12  1  0
  2  4  1  0
  3  8  1  0
  4 10  1  0
  4  5  1  0
  6  7  2  0
  8  1  1  0
  8 11  1  0
  8 12  1  0
  9  6  1  0
 11  6  1  0
M  END
$$$$

     RDKit          3D

 14 14  0  0  0  0  0  0  0  0999 V2000
   42.0550   38.4730   32.7240 N   0  0  0  0  0  0  0  0  0  0  0  0
   42.2820   34.2450   31.1240 C   0  0  0  0  0  0  0  0  0  0  0  0
   42.4290   35.3540   28.9550 C   0  0  0  0  0  0  0  0  0  0  0  0
   41.8570   36.4110   29.5410 C   0  0  0  0  0  0  0  0  0  0  0  0
   41.3960   36.4110   30.9010 C   0  0  0  0  0  0  0  0  0  0  0  0
   39.7510   38.8080   32.9650 O   0  0  0  0  0  0  0  0  0  0  0  0
   41.7370   35.3860   31.7090 C   0  0  0  0  0  0  0  0  0  0  0  0
   44.2010   39.1950   33.0560 O   0  0  0  0  0  0  0  0  0  0  0  0
   40.4390   37.3750   31.2980 C   0  0  0  0  0  0  0  0  0  0  0  0
   40.8980   38.5200   32.1400 C   0  0  0  0  0  0  0  0  0  0  0  0
   38.6860   37.8350   33.2050 C   0  0  0  0  0  0  0  0  0  0  0  0
   42.8390   39.5400   32.8840 C   0  0  0  0  0  0  0  0  0  0  0  0
   42.6170   34.1560   29.8090 C   0  0  0  0  0  0  0  0  0  0  0  0
   42.4280   40.7000   32.6760 O   0  0  0  0  0  0  0  0  0  0  0  0
  1 12  1  0
  2  7  1  0
  3  4  2  0
  3 13  1  0
  4  5  1  0
  5  9  1  0
  5  7  2  0
  6 11  1  0
 10  9  1  0
 10  1  1  0
 10  6  1  0
 12  8  1  0
 13  2  2  0
 14 12  2  0
M  END
$$$$

     RDKit          3D

 12 12  0  0  0  0  0  0  0  0999 V2000
   42.2010   33.7600   31.0110 C   0  0  0  0  0  0  0  0  0  0  0  0
   42.7680   37.7880   28.9910 S   0  0  0  0  0  0  0  0  0  0  0  0
   41.5480   38.6820   29.0420 O   0  0  0  0  0  0  0  0  0  0  0  0
   42.5990   36.2760   29.7720 C   0  0  0  0  0  0  0  0  0  0  0  0
   41.6710   37.0600   26.7810 O   0  0  0  0  0  0  0  0  0  0  0  0
   41.1090   34.6190   30.8240 C   0  0  0  0  0  0  0  0  0  0  0  0
   41.3040   35.8780   30.2270 C   0  0  0  0  0  0  0  0  0  0  0  0
   43.9760   36.9300   27.0390 O   0  0  0  0  0  0  0  0  0  0  0  0
   43.7170   35.4630   30.0030 C   0  0  0  0  0  0  0  0  0  0  0  0
   44.0710   38.4820   29.5050 O   0  0  0  0  0  0  0  0  0  0  0  0
   42.8540   37.4660   27.3600 N   0  0  0  0  0  0  0  0  0  0  0  0
   43.4930   34.2100   30.5840 C   0  0  0  0  0  0  0  0  0  0  0  0
  2  3  2  0
  2 10  2  0
  2  4  1  0
  4  9  2  0
  4  7  1  0
  5 11  2  0
  6  1  1  0
  7  6  2  0
  8 11  2  0
  9 12  1  0
 11  2  1  0
 12  1  2  0
M  END
$$$$

     RDKit          3D

 13 12  0  0  0  0  0  0  0  0999 V2000
   42.3400   34.3230   31.0150 C   0  0  0  0  0  0  0  0  0  0  0  0
   44.1530   36.2570   28.5370 C   0  0  0  0  0  0  0  0  0  0  0  0
   43.7720   38.5650   29.6710 C   0  0  0  0  0  0  0  0  0  0  0  0
   44.2360   39.3820   30.5080 O   0  0  0  0  0  0  0  0  0  0  0  0
   43.0130   36.4860   31.5020 C   0  0  0  0  0  0  0  0  0  0  0  0
   46.6040   35.6380   28.8090 N   0  0  0  0  0  0  0  0  0  0  0  0
   42.3680   35.5970   30.2640 N   0  0  0  0  0  0  0  0  0  0  0  0
   47.1750   37.4940   29.6460 O   0  0  0  0  0  0  0  0  0  0  0  0
   46.3470   36.9290   29.0860 C   0  0  0  0  0  0  0  0  0  0  0  0
   41.4080   35.5270   29.0380 C   0  0  0  0  0  0  0  0  0  0  0  0
   43.6020   35.6120   29.6750 C   0  0  0  0  0  0  0  0  0  0  0  0
   42.4660   38.4970   29.4130 O   0  0  0  0  0  0  0  0  0  0  0  0
   44.8780   37.5460   28.9210 C   0  0  0  0  0  0  0  0  0  0  0  0
  2 11  1  0
  3  4  1  0
  6  9  1  0
  7  1  1  0
  7  5  1  0
  9  8  2  0
 10  7  1  0
 11  7  1  0
 12  3  2  0
 13  2  1  0
 13  9  1  0
 13  3  1  0
M  END
$$$$

     RDKit          3D

  9  8  0  0  0  0  0  0  0  0999 V2000
   41.5030   35.8920   29.9780 C   0  0  0  0  0  0  0  0  0  0  0  0
   43.6150   36.1290   27.0100 O   0  0  0  0  0  0  0  0  0  0  0  0
   44.3760   35.5710   30.8320 O   0  0  0  0  0  0  0  0  0  0  0  0
   45.1650   36.5950   29.0250 O   0  0  0  0  0  0  0  0  0  0  0  0
   42.8850   36.3720   27.8160 C   0  0  0  0  0  0  0  0  0  0  0  0
   42.8040   36.0880   29.3510 C   0  0  0  0  0  0  0  0  0  0  0  0
   41.1650   35.9260   27.6520 S   0  0  0  0  0  0  0  0  0  0  0  0
   41.6650   34.7290   30.9910 C   0  0  0  0  0  0  0  0  0  0  0  0
   44.2910   36.1270   29.7400 C   0  0  0  0  0  0  0  0  0  0  0  0
  1  8  1  0
  2  5  2  0
  4  9  2  0
  5  6  1  0
  6  9  1  0
  6  1  1  0
  7  5  1  0
  9  3  1  0
M  END
$$$$

     RDKit          3D

 15 15  0  0  0  0  0  0  0  0999 V2000
   42.0660   38.5990   29.6130 O   0  0  0  0  0  0  0  0  0  0  0  0
   38.5190   39.3310   25.3270 S   0  0  0  0  0  0  0  0  0  0  0  0
   43.3360   36.7010   28.7520 C   0  0  0  0  0  0  0  0  0  0  0  0
   43.8130   34.7160   30.5080 C   0  0  0  0  0  0  0  0  0  0  0  0
   42.0470   37.6220   32.0710 O   0  0  0  0  0  0  0  0  0  0  0  0
   42.8440   36.8820   31.1280 C   0  0  0  0  0  0  0  0  0  0  0  0
   43.9230   35.4420   29.2180 N   0  0  0  0  0  0  0  0  0  0  0  0
   44.4900   37.5900   29.0340 O   0  0  0  0  0  0  0  0  0  0  0  0
   42.2470   37.5760   26.3540 C   0  0  0  0  0  0  0  0  0  0  0  0
   39.8900   38.6970   25.6910 C   0  0  0  0  0  0  0  0  0  0  0  0
   42.1290   36.1060   27.4090 S   0  0  0  0  0  0  0  0  0  0  0  0
   42.3210   37.2220   29.7520 C   0  0  0  0  0  0  0  0  0  0  0  0
   40.9070   38.1520   26.0810 C   0  0  0  0  0  0  0  0  0  0  0  0
   42.7070   35.3560   31.3690 C   0  0  0  0  0  0  0  0  0  0  0  0
   41.5100   34.3660   31.2190 C   0  0  0  0  0  0  0  0  0  0  0  0
  2 10  1  0
  3  8  1  0
  3  7  1  0
  3 12  1  0
  4 14  1  0
  6 14  1  0
  6  5  1  0
  7  4  1  0
  9 11  1  0
 10 13  3  0
 11  3  1  0
 12  1  1  0
 12  6  1  0
 13  9  1  0
 14 15  1  0
M  END
$$$$

     RDKit          3D

 10 10  0  0  0  0  0  0  0  0999 V2000
   44.3130   35.5060   28.7360 O   0  0  0  0  0  0  0  0  0  0  0  0
   42.3450   36.8040   31.4520 C   0  0  0  0  0  0  0  0  0  0  0  0
   42.6410   37.0800   28.3980 C   0  0  0  0  0  0  0  0  0  0  0  0
   41.4140   37.7490   31.1140 C   0  0  0  0  0  0  0  0  0  0  0  0
   42.8560   36.8680   26.9350 C   0  0  0  0  0  0  0  0  0  0  0  0
   43.3400   36.3550   29.2950 C   0  0  0  0  0  0  0  0  0  0  0  0
   41.2870   38.3120   29.9010 C   0  0  0  0  0  0  0  0  0  0  0  0
   43.2920   36.2340   30.6570 C   0  0  0  0  0  0  0  0  0  0  0  0
   41.7490   38.0120   28.6810 C   0  0  0  0  0  0  0  0  0  0  0  0
   41.5330   36.0110   26.4880 S   0  0  0  0  0  0  0  0  0  0  0  0
  1  6  1  0
  3  9  1  0
  3  6  2  0
  4  2  1  0
  5  3  1  0
  6  8  1  0
  7  4  1  0
  8  2  2  0
  9  7  2  0
 10  5  1  0
M  END
$$$$

     RDKit          3D

 11 11  0  0  0  0  0  0  0  0999 V2000
   42.4860   35.3250   30.7520 C   0  0  0  0  0  0  0  0  0  0  0  0
   45.4080   37.8640   27.7420 C   0  0  0  0  0  0  0  0  0  0  0  0
   44.1190   37.6370   30.2880 O   0  0  0  0  0  0  0  0  0  0  0  0
   42.7630   37.9450   29.9980 C   0  0  0  0  0  0  0  0  0  0  0  0
   44.9870   36.5040   28.2230 C   0  0  0  0  0  0  0  0  0  0  0  0
   41.8230   36.8480   30.5890 C   0  0  0  0  0  0  0  0  0  0  0  0
   43.6200   34.2670   30.4470 N   0  0  0  0  0  0  0  0  0  0  0  0
   43.7030   36.2360   28.4670 C   0  0  0  0  0  0  0  0  0  0  0  0
   45.1210   38.0310   26.3440 O   0  0  0  0  0  0  0  0  0  0  0  0
   44.4090   36.5090   29.7230 C   0  0  0  0  0  0  0  0  0  0  0  0
   41.2110   34.4980   30.9760 C   0  0  0  0  0  0  0  0  0  0  0  0
  1 11  1  0
  4  3  1  0
  4  6  1  0
  5  2  1  0
  5  8  1  0
  5 10  1  0
  6  1  2  3
  7  1  1  0
  8 10  1  0
  9  2  1  0
 10  3  1  0
M  END
$$$$

     RDKit          3D

  6  5  0  0  0  0  0  0  0  0999 V2000
   44.0310   35.7720   28.8920 C   0  0  0  0  0  0  0  0  0  0  0  0
   44.2060   37.2750   30.8580 C   0  0  0  0  0  0  0  0  0  0  0  0
   43.2290   36.6970   29.8180 C   0  0  0  0  0  0  0  0  0  0  0  0
   42.6290   37.9050   29.0950 C   0  0  0  0  0  0  0  0  0  0  0  0
   42.0790   35.9380   30.5250 C   0  0  0  0  0  0  0  0  0  0  0  0
   41.9080   34.6110   30.0030 O   0  0  0  0  0  0  0  0  0  0  0  0
  1  3  1  0
  3  5  1  0
  3  2  1  0
  4  3  1  0
  6  5  1  0
M  END
$$$$
