
     RDKit          3D

 15 17  0  0  0  0  0  0  0  0999 V2000
   41.6780   41.7120   34.4700 C   0  0  0  0  0  0  0  0  0  0  0  0
   40.8780   40.2990   33.9400 C   0  0  0  0  0  0  0  0  0  0  0  0
   41.6080   39.3420   33.9000 C   0  0  0  0  0  0  0  0  0  0  0  0
   40.7840   41.8330   35.6640 O   0  0  0  0  0  0  0  0  0  0  0  0
   39.3960   38.8820   33.6000 C   0  0  0  0  0  0  0  0  0  0  0  0
   43.2790   37.6820   33.9560 C   0  0  0  0  0  0  0  0  0  0  0  0
   38.7430   36.6780   32.8080 C   0  0  0  0  0  0  0  0  0  0  0  0
   40.0500   36.4190   32.4820 C   0  0  0  0  0  0  0  0  0  0  0  0
   42.3980   36.9950   33.1220 N   0  0  0  0  0  0  0  0  0  0  0  0
   44.0660   39.7120   35.6440 S   0  0  0  0  0  0  0  0  0  0  0  0
   42.8940   38.8440   34.5400 C   0  0  0  0  0  0  0  0  0  0  0  0
   38.3100   37.8620   33.4670 C   0  0  0  0  0  0  0  0  0  0  0  0
   39.5370   40.1690   33.9750 N   0  0  0  0  0  0  0  0  0  0  0  0
   40.6260   38.5340   33.3100 C   0  0  0  0  0  0  0  0  0  0  0  0
   41.0520   37.3450   32.8000 C   0  0  0  0  0  0  0  0  0  0  0  0
  1  4  1  0
  2 13  1  0
  2  1  1  0
  3  2  1  0
  3 11  1  0
  5 13  1  0
  6 11  2  0
  7 12  1  0
  8 15  1  0
  8  7  2  0
  9  6  1  0
 11 10  1  0
 12  5  2  0
 14  5  1  0
 14  3  2  0
 15  9  2  0
 15 14  1  0
M  END
$$$$

     RDKit          3D

 19 20  0  0  0  0  0  0  0  0999 V2000
   40.9820   36.6100   32.6310 C   0  0  0  0  0  0  0  0  0  0  0  0
   42.0010   36.9650   33.7890 S   0  0  0  0  0  0  0  0  0  0  0  0
   42.1480   42.6610   30.5670 O   0  0  0  0  0  0  0  0  0  0  0  0
   42.6280   40.8750   28.9230 C   0  0  0  0  0  0  0  0  0  0  0  0
   42.8080   40.5010   31.3900 C   0  0  0  0  0  0  0  0  0  0  0  0
   40.2720   35.6250   32.7480 N   0  0  0  0  0  0  0  0  0  0  0  0
   41.8520   38.4060   31.9140 C   0  0  0  0  0  0  0  0  0  0  0  0
   44.0270   40.3930   34.4080 C   0  0  0  0  0  0  0  0  0  0  0  0
   42.5580   38.5000   33.2870 C   0  0  0  0  0  0  0  0  0  0  0  0
   44.2120   39.8880   35.7500 O   0  0  0  0  0  0  0  0  0  0  0  0
   41.0030   37.4100   31.7730 N   0  0  0  0  0  0  0  0  0  0  0  0
   42.3660   41.3230   30.1510 N   0  0  0  0  0  0  0  0  0  0  0  0
   43.6220   39.9970   28.7400 N   0  0  0  0  0  0  0  0  0  0  0  0
   41.7740   39.3640   31.1560 C   0  0  0  0  0  0  0  0  0  0  0  0
   41.8450   41.1870   28.0030 O   0  0  0  0  0  0  0  0  0  0  0  0
   39.8050   40.3830   30.6600 O   0  0  0  0  0  0  0  0  0  0  0  0
   42.9060   40.8630   32.5840 N   0  0  0  0  0  0  0  0  0  0  0  0
   42.9170   39.9420   33.7750 C   0  0  0  0  0  0  0  0  0  0  0  0
   40.7230   39.3860   30.2330 C   0  0  0  0  0  0  0  0  0  0  0  0
  1  6  1  0
  1  2  1  0
  4 12  1  0
  5 12  1  0
  5 17  1  0
  7  9  2  0
  8 10  1  0
  9 18  1  0
  9  2  1  0
 11  7  1  0
 11  1  2  0
 12  3  1  0
 13  4  1  0
 14 19  1  0
 14  5  1  0
 14  7  1  0
 15  4  2  0
 17 18  1  0
 18  8  1  0
 19 16  1  0
M  END
$$$$

     RDKit          3D

 10 10  0  0  0  0  0  0  0  0999 V2000
   43.2910   39.0140   31.4990 C   0  0  0  0  0  0  0  0  0  0  0  0
   43.4060   39.6540   28.3970 I   0  0  0  0  0  0  0  0  0  0  0  0
   39.9800   40.8040   33.6440 O   0  0  0  0  0  0  0  0  0  0  0  0
   42.5810   39.2690   30.3380 C   0  0  0  0  0  0  0  0  0  0  0  0
   40.3510   39.4380   29.1380 C   0  0  0  0  0  0  0  0  0  0  0  0
   42.8120   38.9520   32.7490 C   0  0  0  0  0  0  0  0  0  0  0  0
   41.1070   39.3360   30.5030 C   0  0  0  0  0  0  0  0  0  0  0  0
   40.6540   40.0500   32.9850 C   0  0  0  0  0  0  0  0  0  0  0  0
   40.3390   39.6030   31.6790 C   0  0  0  0  0  0  0  0  0  0  0  0
   41.9460   39.7910   33.2850 O   0  0  0  0  0  0  0  0  0  0  0  0
  1  6  1  0
  2  4  1  0
  4  7  1  0
  4  1  2  0
  6 10  1  0
  7  5  1  0
  7  9  1  0
  8 10  1  0
  8  3  2  0
  9  8  1  0
M  END
$$$$

     RDKit          3D

  7  6  0  0  0  0  0  0  0  0999 V2000
   40.6690   41.5240   30.7980 O   0  0  0  0  0  0  0  0  0  0  0  0
   41.6840   42.4860   28.2040 O   0  0  0  0  0  0  0  0  0  0  0  0
   40.7350   39.6540   29.0220 N   0  0  0  0  0  0  0  0  0  0  0  0
   42.2800   41.3910   30.3660 C   0  0  0  0  0  0  0  0  0  0  0  0
   42.5330   42.3750   29.3060 C   0  0  0  0  0  0  0  0  0  0  0  0
   42.0070   43.7270   29.6300 O   0  0  0  0  0  0  0  0  0  0  0  0
   42.1050   39.9490   29.5050 C   0  0  0  0  0  0  0  0  0  0  0  0
  2  5  1  0
  3  7  1  0
  4  1  1  0
  5  6  1  0
  5  4  1  0
  7  4  1  0
M  END
$$$$

     RDKit          3D

 14 15  0  0  0  0  0  0  0  0999 V2000
   40.8950   40.4550   34.1030 O   0  0  0  0  0  0  0  0  0  0  0  0
   40.3220   38.4230   31.4300 C   0  0  0  0  0  0  0  0  0  0  0  0
   44.1180   38.3010   33.7660 C   0  0  0  0  0  0  0  0  0  0  0  0
   40.0720   39.7010   32.0360 N   0  0  0  0  0  0  0  0  0  0  0  0
   41.8420   37.1700   32.8870 C   0  0  0  0  0  0  0  0  0  0  0  0
   44.5340   37.2100   34.0840 O   0  0  0  0  0  0  0  0  0  0  0  0
   41.0130   39.9220   32.9720 C   0  0  0  0  0  0  0  0  0  0  0  0
   40.9940   40.9630   29.7210 C   0  0  0  0  0  0  0  0  0  0  0  0
   39.3700   38.8890   29.2950 O   0  0  0  0  0  0  0  0  0  0  0  0
   40.0330   39.6160   30.3850 S   0  0  0  0  0  0  0  0  0  0  0  0
   42.2560   39.5060   32.6510 N   0  0  0  0  0  0  0  0  0  0  0  0
   42.5560   38.3590   33.4890 C   0  0  0  0  0  0  0  0  0  0  0  0
   40.4300   37.3690   32.3470 C   0  0  0  0  0  0  0  0  0  0  0  0
   44.7560   39.6740   33.5200 C   0  0  0  0  0  0  0  0  0  0  0  0
  2  4  1  0
  2 13  1  0
  3  6  2  0
  4  7  1  0
  5 12  1  0
  7  1  2  0
  9 10  1  0
 10  8  1  0
 10  2  1  0
 10  4  1  0
 11  7  1  0
 11 12  1  0
 12  3  1  0
 13  5  1  0
 14  3  1  0
M  END
$$$$

     RDKit          3D

  7  6  0  0  0  0  0  0  0  0999 V2000
   40.2570   40.6940   29.2090 O   0  0  0  0  0  0  0  0  0  0  0  0
   40.2750   40.6140   30.6320 C   0  0  0  0  0  0  0  0  0  0  0  0
   41.6500   38.6980   29.7500 O   0  0  0  0  0  0  0  0  0  0  0  0
   40.9110   38.6150   32.1590 C   0  0  0  0  0  0  0  0  0  0  0  0
   39.6940   37.7260   31.8390 C   0  0  0  0  0  0  0  0  0  0  0  0
   41.6650   37.7010   33.2150 C   0  0  0  0  0  0  0  0  0  0  0  0
   41.2100   39.4450   30.9150 C   0  0  0  0  0  0  0  0  0  0  0  0
  1  2  1  0
  2  7  1  0
  4  6  1  0
  5  4  1  0
  7  3  1  0
  7  4  1  0
M  END
$$$$

     RDKit          3D

 16 16  0  0  0  0  0  0  0  0999 V2000
   40.2940   37.6760   30.5670 O   0  0  0  0  0  0  0  0  0  0  0  0
   41.5450   36.4340   32.5990 N   0  0  0  0  0  0  0  0  0  0  0  0
   41.2800   39.8700   33.7150 C   0  0  0  0  0  0  0  0  0  0  0  0
   38.9040   34.5600   31.9180 N   0  0  0  0  0  0  0  0  0  0  0  0
   40.3570   35.5390   32.3310 C   0  0  0  0  0  0  0  0  0  0  0  0
   40.5000   39.6820   31.5530 N   0  0  0  0  0  0  0  0  0  0  0  0
   42.2930   38.0050   34.7090 O   0  0  0  0  0  0  0  0  0  0  0  0
   40.0340   40.3730   30.4990 C   0  0  0  0  0  0  0  0  0  0  0  0
   39.2180   36.1190   32.2560 C   0  0  0  0  0  0  0  0  0  0  0  0
   41.2060   37.6790   32.6710 C   0  0  0  0  0  0  0  0  0  0  0  0
   41.4790   40.6420   34.8230 O   0  0  0  0  0  0  0  0  0  0  0  0
   39.6600   34.4480   30.6240 O   0  0  0  0  0  0  0  0  0  0  0  0
   41.0100   34.2410   32.3790 C   0  0  0  0  0  0  0  0  0  0  0  0
   41.5990   38.5180   33.7100 C   0  0  0  0  0  0  0  0  0  0  0  0
   40.6590   38.3170   31.5920 C   0  0  0  0  0  0  0  0  0  0  0  0
   40.7740   40.4400   32.5900 N   0  0  0  0  0  0  0  0  0  0  0  0
  1 15  2  0
  2 10  1  0
  3 11  2  0
  4  9  1  0
  5 13  1  0
  5  2  1  0
  6 15  1  0
  6 16  1  0
  8  6  1  0
  9  5  1  0
 10 14  2  0
 12  4  1  0
 14  3  1  0
 14  7  1  0
 15 10  1  0
 16  3  1  0
M  END
$$$$

     RDKit          3D

  7  7  0  0  0  0  0  0  0  0999 V2000
   42.6660   40.3680   32.5280 N   0  0  0  0  0  0  0  0  0  0  0  0
   43.0600   39.0520   32.7840 C   0  0  0  0  0  0  0  0  0  0  0  0
   44.3410   38.8440   33.1740 N   0  0  0  0  0  0  0  0  0  0  0  0
   40.3300   39.2640   32.0500 N   0  0  0  0  0  0  0  0  0  0  0  0
   41.1300   40.4800   32.0410 C   0  0  0  0  0  0  0  0  0  0  0  0
   40.9820   37.9460   32.5050 C   0  0  0  0  0  0  0  0  0  0  0  0
   42.1390   38.1590   33.5200 C   0  0  0  0  0  0  0  0  0  0  0  0
  1  2  1  0
  2  3  1  0
  2  7  1  0
  4  6  1  0
  5  4  2  0
  5  1  1  0
  6  7  1  0
M  END
$$$$

     RDKit          3D

 13 13  0  0  0  0  0  0  0  0999 V2000
   30.9310   37.1880   35.4430 O   0  0  0  0  0  0  0  0  0  0  0  0
   34.5940   38.7640   33.6240 C   0  0  0  0  0  0  0  0  0  0  0  0
   29.7150   38.6390   33.5170 O   0  0  0  0  0  0  0  0  0  0  0  0
   33.9080   39.7960   34.3750 C   0  0  0  0  0  0  0  0  0  0  0  0
   32.5330   39.7620   33.9460 C   0  0  0  0  0  0  0  0  0  0  0  0
   33.5790   37.6630   33.4570 N   0  0  0  0  0  0  0  0  0  0  0  0
   32.5200   38.2410   33.7240 C   0  0  0  0  0  0  0  0  0  0  0  0
   30.9470   37.5610   33.8890 S   0  0  0  0  0  0  0  0  0  0  0  0
   29.5980   35.6810   32.6050 C   0  0  0  0  0  0  0  0  0  0  0  0
   30.7990   36.2390   33.0960 O   0  0  0  0  0  0  0  0  0  0  0  0
   34.2440   40.4630   35.3060 O   0  0  0  0  0  0  0  0  0  0  0  0
   28.3820   38.2830   34.0300 C   0  0  0  0  0  0  0  0  0  0  0  0
   34.0920   36.3730   33.3410 O   0  0  0  0  0  0  0  0  0  0  0  0
  2  4  1  0
  3  8  1  0
  3 12  1  0
  4 11  2  0
  5  4  1  0
  6  2  1  0
  6  7  1  0
  7  8  1  0
  7  5  1  0
  8  1  1  0
  9 10  1  0
 10  8  1  0
 13  6  1  0
M  END
$$$$

     RDKit          3D

 15 15  0  0  0  0  0  0  0  0999 V2000
   41.0090   35.9620   32.4810 C   0  0  0  0  0  0  0  0  0  0  0  0
   41.4730   38.4920   32.4590 C   0  0  0  0  0  0  0  0  0  0  0  0
   41.1860   36.5830   31.1190 C   0  0  0  0  0  0  0  0  0  0  0  0
   42.1370   42.7880   31.6110 C   0  0  0  0  0  0  0  0  0  0  0  0
   40.1050   39.6380   29.2880 Cl  0  0  0  0  0  0  0  0  0  0  0  0
   40.5660   39.5610   32.6860 C   0  0  0  0  0  0  0  0  0  0  0  0
   41.0820   41.7920   34.0870 O   0  0  0  0  0  0  0  0  0  0  0  0
   40.9550   36.7500   33.7090 N   0  0  0  0  0  0  0  0  0  0  0  0
   41.4320   40.8040   33.0530 C   0  0  0  0  0  0  0  0  0  0  0  0
   41.6710   38.0010   31.2520 N   0  0  0  0  0  0  0  0  0  0  0  0
   39.3090   40.2360   32.3300 O   0  0  0  0  0  0  0  0  0  0  0  0
   39.9200   42.3980   29.6620 Cl  0  0  0  0  0  0  0  0  0  0  0  0
   41.5250   41.3660   31.6420 C   0  0  0  0  0  0  0  0  0  0  0  0
   40.6720   40.9240   30.3930 C   0  0  0  0  0  0  0  0  0  0  0  0
   41.9350   37.8180   33.7010 C   0  0  0  0  0  0  0  0  0  0  0  0
  1  8  1  0
  2  6  1  0
  2 15  1  0
  3 10  1  0
  3  1  1  0
  5 14  1  0
  6 11  1  0
  6  9  1  0
  9  7  1  0
 10  2  1  0
 12 14  1  0
 13  4  1  0
 13  9  1  0
 14 13  1  0
 15  8  1  0
M  END
$$$$

     RDKit          3D

 13 12  0  0  0  0  0  0  0  0999 V2000
   42.2270   40.5630   31.2920 C   0  0  0  0  0  0  0  0  0  0  0  0
   40.3690   37.1360   31.9860 O   0  0  0  0  0  0  0  0  0  0  0  0
   40.4520   39.4840   28.4570 C   0  0  0  0  0  0  0  0  0  0  0  0
   39.9680   41.7020   29.5670 N   0  0  0  0  0  0  0  0  0  0  0  0
   42.3650   38.6230   32.6970 C   0  0  0  0  0  0  0  0  0  0  0  0
   40.4850   39.4760   30.8920 C   0  0  0  0  0  0  0  0  0  0  0  0
   41.6000   39.6860   27.9520 O   0  0  0  0  0  0  0  0  0  0  0  0
   41.1300   38.4080   31.7080 C   0  0  0  0  0  0  0  0  0  0  0  0
   42.8020   39.9350   32.6970 C   0  0  0  0  0  0  0  0  0  0  0  0
   39.7280   38.5370   28.0700 O   0  0  0  0  0  0  0  0  0  0  0  0
   40.1990   40.2380   29.7870 C   0  0  0  0  0  0  0  0  0  0  0  0
   40.8810   36.0210   32.7380 C   0  0  0  0  0  0  0  0  0  0  0  0
   42.1850   41.0800   30.6080 N   0  0  0  0  0  0  0  0  0  0  0  0
  1  9  1  0
  2 12  1  0
  3 11  1  0
  4 11  1  0
  5  9  1  0
  6  8  2  0
  7  3  2  0
  8  2  1  0
  8  5  1  0
 10  3  1  0
 11  6  2  0
 13  1  3  0
M  END
$$$$

     RDKit          3D

 22 23  0  0  0  0  0  0  0  0999 V2000
   40.8000   42.1630   27.9550 O   0  0  0  0  0  0  0  0  0  0  0  0
   40.9970   41.6510   30.3310 C   0  0  0  0  0  0  0  0  0  0  0  0
   41.2380   37.8400   33.7480 C   0  0  0  0  0  0  0  0  0  0  0  0
   41.0110   35.5580   33.6090 C   0  0  0  0  0  0  0  0  0  0  0  0
   42.4060   41.4480   30.9300 C   0  0  0  0  0  0  0  0  0  0  0  0
   42.0450   42.0010   32.2550 O   0  0  0  0  0  0  0  0  0  0  0  0
   41.2010   38.8610   29.5060 O   0  0  0  0  0  0  0  0  0  0  0  0
   40.3540   36.6540   31.8530 C   0  0  0  0  0  0  0  0  0  0  0  0
   38.3480   41.6390   29.6320 O   0  0  0  0  0  0  0  0  0  0  0  0
   39.9970   37.7410   31.1560 C   0  0  0  0  0  0  0  0  0  0  0  0
   39.8670   41.0950   31.1900 C   0  0  0  0  0  0  0  0  0  0  0  0
   41.1840   41.1190   28.9220 C   0  0  0  0  0  0  0  0  0  0  0  0
   41.3660   37.9370   35.0590 O   0  0  0  0  0  0  0  0  0  0  0  0
   40.4610   34.7650   32.6390 C   0  0  0  0  0  0  0  0  0  0  0  0
   40.2470   39.7850   28.8600 C   0  0  0  0  0  0  0  0  0  0  0  0
   38.8570   40.6250   28.6850 C   0  0  0  0  0  0  0  0  0  0  0  0
   40.9060   36.7280   33.0360 N   0  0  0  0  0  0  0  0  0  0  0  0
   39.7400   38.7310   27.8530 C   0  0  0  0  0  0  0  0  0  0  0  0
   39.5590   39.8320   31.1390 O   0  0  0  0  0  0  0  0  0  0  0  0
   40.1040   35.4100   31.5300 N   0  0  0  0  0  0  0  0  0  0  0  0
   40.8890   38.9600   33.0560 C   0  0  0  0  0  0  0  0  0  0  0  0
   40.1750   38.9490   31.7880 C   0  0  0  0  0  0  0  0  0  0  0  0
  2  5  1  0
  2 11  1  0
  3 13  2  0
  5  6  1  0
  8 17  1  0
 10 22  2  0
 10  8  1  0
 12  1  1  0
 12  2  1  0
 14  4  2  0
 15 18  1  0
 15 12  1  0
 15  7  1  0
 16 15  1  0
 16  9  1  0
 17  4  1  0
 17  3  1  0
 19 11  1  0
 19 22  1  0
 20  8  2  0
 20 14  1  0
 21  3  1  0
 22 21  1  0
M  END
$$$$

     RDKit          3D

 13 13  0  0  0  0  0  0  0  0999 V2000
   40.4310   36.7750   32.7070 S   0  0  0  0  0  0  0  0  0  0  0  0
   42.5370   41.3870   34.8120 C   0  0  0  0  0  0  0  0  0  0  0  0
   40.4620   38.1180   30.3520 N   0  0  0  0  0  0  0  0  0  0  0  0
   42.9460   40.1470   34.2050 N   0  0  0  0  0  0  0  0  0  0  0  0
   40.4300   38.3160   31.7060 C   0  0  0  0  0  0  0  0  0  0  0  0
   40.3500   40.5110   29.9810 C   0  0  0  0  0  0  0  0  0  0  0  0
   40.4300   39.2190   29.4740 C   0  0  0  0  0  0  0  0  0  0  0  0
   40.3870   39.5880   32.2710 C   0  0  0  0  0  0  0  0  0  0  0  0
   42.4560   38.9660   34.5510 C   0  0  0  0  0  0  0  0  0  0  0  0
   43.6910   40.3770   33.0080 C   0  0  0  0  0  0  0  0  0  0  0  0
   42.8630   37.7170   33.9710 C   0  0  0  0  0  0  0  0  0  0  0  0
   40.3400   40.6680   31.3790 C   0  0  0  0  0  0  0  0  0  0  0  0
   42.2730   36.6500   32.9660 C   0  0  0  0  0  0  0  0  0  0  0  0
  1 13  1  0
  3  5  1  0
  4  9  1  0
  4  2  1  0
  5  8  2  0
  5  1  1  0
  6 12  2  0
  7  6  1  0
  7  3  2  0
 10  4  1  0
 11  9  1  0
 12  8  1  0
 13 11  1  0
M  END
$$$$

     RDKit          3D

  9  9  0  0  0  0  0  0  0  0999 V2000
   41.2620   40.4290   33.3750 C   0  0  0  0  0  0  0  0  0  0  0  0
   40.2620   41.1550   33.4390 O   0  0  0  0  0  0  0  0  0  0  0  0
   41.6700   39.6270   32.3840 N   0  0  0  0  0  0  0  0  0  0  0  0
   43.2900   37.8190   32.1970 C   0  0  0  0  0  0  0  0  0  0  0  0
   42.7280   38.8770   32.8460 C   0  0  0  0  0  0  0  0  0  0  0  0
   43.0890   42.0280   34.1960 S   0  0  0  0  0  0  0  0  0  0  0  0
   43.1320   39.2280   34.0860 O   0  0  0  0  0  0  0  0  0  0  0  0
   42.3140   40.3790   34.4380 C   0  0  0  0  0  0  0  0  0  0  0  0
   41.1340   39.6580   31.0420 C   0  0  0  0  0  0  0  0  0  0  0  0
  1  2  2  0
  1  8  1  0
  3  5  1  0
  3  1  1  0
  4  5  2  0
  5  7  1  0
  7  8  1  0
  8  6  1  0
  9  3  1  0
M  END
$$$$

     RDKit          3D

 16 17  0  0  0  0  0  0  0  0999 V2000
   42.4400   42.0020   27.8510 S   0  0  0  0  0  0  0  0  0  0  0  0
   40.8770   39.0850   32.6120 C   0  0  0  0  0  0  0  0  0  0  0  0
   40.3600   38.9460   28.7800 O   0  0  0  0  0  0  0  0  0  0  0  0
   41.6420   36.6230   33.7150 C   0  0  0  0  0  0  0  0  0  0  0  0
   42.2870   37.7970   34.0910 C   0  0  0  0  0  0  0  0  0  0  0  0
   41.7980   43.4330   28.6210 C   0  0  0  0  0  0  0  0  0  0  0  0
   41.7420   43.1620   29.9310 C   0  0  0  0  0  0  0  0  0  0  0  0
   40.4530   40.8760   30.8440 N   0  0  0  0  0  0  0  0  0  0  0  0
   41.9030   39.0130   33.5490 C   0  0  0  0  0  0  0  0  0  0  0  0
   41.3680   39.3990   29.1040 C   0  0  0  0  0  0  0  0  0  0  0  0
   40.6220   36.6450   32.7710 C   0  0  0  0  0  0  0  0  0  0  0  0
   41.5580   41.7070   30.3440 C   0  0  0  0  0  0  0  0  0  0  0  0
   40.2520   37.8870   32.2360 C   0  0  0  0  0  0  0  0  0  0  0  0
   41.7520   40.9340   29.0870 C   0  0  0  0  0  0  0  0  0  0  0  0
   42.3530   38.7730   29.7540 O   0  0  0  0  0  0  0  0  0  0  0  0
   40.3140   40.3740   32.1170 C   0  0  0  0  0  0  0  0  0  0  0  0
  1  6  1  0
  1 14  1  0
  2  9  1  0
  3 10  2  0
  4  5  1  0
  6  7  1  0
  7 12  1  0
  8 16  1  0
  9  5  2  0
 10 15  1  0
 11  4  2  0
 12  8  1  0
 13  2  2  0
 13 11  1  0
 14 10  1  0
 14 12  1  0
 16  2  1  0
M  END
$$$$

     RDKit          3D

 13 14  0  0  0  0  0  0  0  0999 V2000
   42.5090   38.2400   33.1520 C   0  0  0  0  0  0  0  0  0  0  0  0
   40.0810   40.3650   29.6920 C   0  0  0  0  0  0  0  0  0  0  0  0
   40.8170   41.2310   30.9700 S   0  0  0  0  0  0  0  0  0  0  0  0
   43.8000   39.1060   35.0080 C   0  0  0  0  0  0  0  0  0  0  0  0
   42.0670   39.5340   32.8730 C   0  0  0  0  0  0  0  0  0  0  0  0
   40.7700   38.6070   30.9900 C   0  0  0  0  0  0  0  0  0  0  0  0
   42.4750   40.6360   33.6500 C   0  0  0  0  0  0  0  0  0  0  0  0
   41.2060   39.6230   31.7260 C   0  0  0  0  0  0  0  0  0  0  0  0
   43.3880   38.0410   34.2200 C   0  0  0  0  0  0  0  0  0  0  0  0
   40.0680   37.3770   31.4320 C   0  0  0  0  0  0  0  0  0  0  0  0
   42.0680   42.0640   33.4550 C   0  0  0  0  0  0  0  0  0  0  0  0
   43.3390   40.3860   34.7140 C   0  0  0  0  0  0  0  0  0  0  0  0
   40.3040   39.0750   29.6870 C   0  0  0  0  0  0  0  0  0  0  0  0
  1  9  1  0
  2  3  1  0
  3  8  1  0
  5  1  2  0
  5  7  1  0
  6 10  1  0
  6  8  1  0
  7 12  2  0
  8  5  1  0
  9  4  2  0
 11  7  1  0
 12  4  1  0
 13  2  1  0
 13  6  1  0
M  END
$$$$

     RDKit          3D

 13 13  0  0  0  0  0  0  0  0999 V2000
   41.5300   42.3200   30.8690 O   0  0  0  0  0  0  0  0  0  0  0  0
   43.4260   41.5380   31.5700 O   0  0  0  0  0  0  0  0  0  0  0  0
   42.2640   41.3740   31.2150 C   0  0  0  0  0  0  0  0  0  0  0  0
   41.4930   37.8190   32.1920 N   0  0  0  0  0  0  0  0  0  0  0  0
   41.6570   37.0870   33.2600 C   0  0  0  0  0  0  0  0  0  0  0  0
   39.8930   36.3580   32.3330 N   0  0  0  0  0  0  0  0  0  0  0  0
   40.7150   36.1060   33.3390 C   0  0  0  0  0  0  0  0  0  0  0  0
   40.5500   40.1040   32.3700 S   0  0  0  0  0  0  0  0  0  0  0  0
   43.6570   38.5880   30.9610 C   0  0  0  0  0  0  0  0  0  0  0  0
   41.5910   39.9960   31.3010 C   0  0  0  0  0  0  0  0  0  0  0  0
   40.3310   37.4180   31.6570 C   0  0  0  0  0  0  0  0  0  0  0  0
   42.4370   38.8320   31.8080 C   0  0  0  0  0  0  0  0  0  0  0  0
   42.5430   37.4200   34.1420 N   0  0  0  0  0  0  0  0  0  0  0  0
  1  3  2  0
  3 10  1  0
  3  2  1  0
  4  5  1  0
  5  7  2  0
  5 13  1  0
  6  7  1  0
 10 12  1  0
 10  8  1  0
 11  4  1  0
 11  6  2  0
 12  9  1  0
 12  4  1  0
M  END
$$$$

     RDKit          3D

 16 17  0  0  0  0  0  0  0  0999 V2000
   38.9750   40.4570   33.7270 F   0  0  0  0  0  0  0  0  0  0  0  0
   41.4490   41.2660   35.6860 O   0  0  0  0  0  0  0  0  0  0  0  0
   44.5600   38.5670   34.1220 C   0  0  0  0  0  0  0  0  0  0  0  0
   41.1860   41.4910   34.5120 C   0  0  0  0  0  0  0  0  0  0  0  0
   41.5500   37.6280   32.4910 C   0  0  0  0  0  0  0  0  0  0  0  0
   40.0110   39.7670   33.1520 C   0  0  0  0  0  0  0  0  0  0  0  0
   40.8790   35.4940   32.5780 C   0  0  0  0  0  0  0  0  0  0  0  0
   43.7810   39.8620   34.2240 C   0  0  0  0  0  0  0  0  0  0  0  0
   39.5270   38.8610   32.2140 C   0  0  0  0  0  0  0  0  0  0  0  0
   42.5430   39.6640   33.4200 N   0  0  0  0  0  0  0  0  0  0  0  0
   40.8550   42.6670   34.0310 O   0  0  0  0  0  0  0  0  0  0  0  0
   42.7570   38.5440   32.5020 C   0  0  0  0  0  0  0  0  0  0  0  0
   41.7300   36.3730   33.1100 N   0  0  0  0  0  0  0  0  0  0  0  0
   41.2820   40.2800   33.5670 C   0  0  0  0  0  0  0  0  0  0  0  0
   44.0500   37.8550   32.8730 C   0  0  0  0  0  0  0  0  0  0  0  0
   40.3470   37.7720   31.8590 C   0  0  0  0  0  0  0  0  0  0  0  0
  3  8  1  0
  4  2  1  0
  5 12  1  0
  5 13  1  0
  6 14  1  0
  6  1  1  0
  7 13  1  0
  9  6  1  0
 10 14  1  0
 10  8  1  0
 11  4  2  0
 12 15  1  0
 12 10  1  0
 14  4  1  0
 15  3  1  0
 16  9  2  0
 16  5  1  0
M  END
$$$$

     RDKit          3D

 14 14  0  0  0  0  0  0  0  0999 V2000
   41.7430   40.0760   29.9710 C   0  0  0  0  0  0  0  0  0  0  0  0
   43.7560   39.4850   34.5820 O   0  0  0  0  0  0  0  0  0  0  0  0
   40.3590   36.1290   32.3840 C   0  0  0  0  0  0  0  0  0  0  0  0
   39.5250   38.8210   30.3210 C   0  0  0  0  0  0  0  0  0  0  0  0
   43.7030   39.3880   31.5180 C   0  0  0  0  0  0  0  0  0  0  0  0
   41.1520   37.3520   32.8230 C   0  0  0  0  0  0  0  0  0  0  0  0
   40.9340   39.1240   30.8420 C   0  0  0  0  0  0  0  0  0  0  0  0
   43.9120   41.0470   29.8270 O   0  0  0  0  0  0  0  0  0  0  0  0
   42.6850   39.3410   32.4710 C   0  0  0  0  0  0  0  0  0  0  0  0
   42.8430   40.0110   33.8470 C   0  0  0  0  0  0  0  0  0  0  0  0
   41.5350   38.6150   31.9940 C   0  0  0  0  0  0  0  0  0  0  0  0
   43.2370   39.8360   30.1330 C   0  0  0  0  0  0  0  0  0  0  0  0
   38.7680   40.0710   29.8760 C   0  0  0  0  0  0  0  0  0  0  0  0
   42.0580   40.9670   34.1380 O   0  0  0  0  0  0  0  0  0  0  0  0
  1 12  1  0
  1  7  1  0
  3  6  1  0
  5  9  1  0
  7  4  1  0
  7 11  1  0
  9 10  1  0
 10 14  2  0
 10  2  1  0
 11  9  1  0
 11  6  1  0
 12  8  1  0
 12  5  1  0
 13  4  1  0
M  END
$$$$

     RDKit          3D

  6  5  0  0  0  0  0  0  0  0999 V2000
   41.6740   38.8580   31.9840 C   0  0  0  0  0  0  0  0  0  0  0  0
   40.6920   39.7210   32.6130 N   0  0  0  0  0  0  0  0  0  0  0  0
   41.9060   39.4500   29.5850 O   0  0  0  0  0  0  0  0  0  0  0  0
   41.1580   38.8560   30.4480 C   0  0  0  0  0  0  0  0  0  0  0  0
   39.4320   40.0540   31.9950 N   0  0  0  0  0  0  0  0  0  0  0  0
   40.1780   38.1910   29.8890 O   0  0  0  0  0  0  0  0  0  0  0  0
  1  2  1  0
  3  4  2  0
  4  1  1  0
  5  2  1  0
  6  4  1  0
M  END
$$$$
