
     RDKit          3D

 23 22  0  0  0  0  0  0  0  0999 V2000
   35.9420   32.0260   28.5860 C   0  0  0  0  0  0  0  0  0  0  0  0
   41.7180   39.0390   25.4180 O   0  0  0  0  0  0  0  0  0  0  0  0
   34.8990   31.7590   27.5470 O   0  0  0  0  0  0  0  0  0  0  0  0
   39.8960   39.3110   26.8340 C   0  0  0  0  0  0  0  0  0  0  0  0
   42.0140   36.7540   28.6620 N   0  0  0  0  0  0  0  0  0  0  0  0
   38.7950   39.7130   26.6500 O   0  0  0  0  0  0  0  0  0  0  0  0
   42.0240   35.9810   31.1630 C   0  0  0  0  0  0  0  0  0  0  0  0
   40.4540   38.3610   27.8780 C   0  0  0  0  0  0  0  0  0  0  0  0
   36.5110   30.1680   30.3150 C   0  0  0  0  0  0  0  0  0  0  0  0
   38.9030   31.2250   30.5970 C   0  0  0  0  0  0  0  0  0  0  0  0
   40.0080   34.3120   30.8200 C   0  0  0  0  0  0  0  0  0  0  0  0
   36.1980   33.3470   28.5770 O   0  0  0  0  0  0  0  0  0  0  0  0
   37.8950   32.2990   30.6230 C   0  0  0  0  0  0  0  0  0  0  0  0
   40.9150   40.0120   26.0200 C   0  0  0  0  0  0  0  0  0  0  0  0
   41.0260   38.0010   30.3480 O   0  0  0  0  0  0  0  0  0  0  0  0
   41.9070   37.9030   27.7090 C   0  0  0  0  0  0  0  0  0  0  0  0
   39.7020   33.5020   29.7630 O   0  0  0  0  0  0  0  0  0  0  0  0
   36.0760   30.9690   29.2990 C   0  0  0  0  0  0  0  0  0  0  0  0
   37.9790   33.3940   29.6720 C   0  0  0  0  0  0  0  0  0  0  0  0
   41.7340   37.0030   30.0460 C   0  0  0  0  0  0  0  0  0  0  0  0
   40.2970   40.5490   24.8230 N   0  0  0  0  0  0  0  0  0  0  0  0
   37.9810   29.9820   30.4740 C   0  0  0  0  0  0  0  0  0  0  0  0
   41.4760   34.6550   30.6880 C   0  0  0  0  0  0  0  0  0  0  0  0
  1 18  2  0
  2 14  1  0
  3  1  2  0
  4  8  1  0
  5 20  1  0
  6  4  2  0
  9 22  1  0
 10 13  1  0
 12  1  1  0
 14 21  1  0
 14  4  1  0
 16  8  1  0
 16  5  1  0
 17 11  1  0
 18  9  2  0
 19 17  1  0
 19 13  1  0
 20 15  2  0
 20  7  1  0
 22 10  1  0
 23 11  1  0
 23  7  1  0
M  END
$$$$

     RDKit          3D

 10 10  0  0  0  0  0  0  0  0999 V2000
   42.8550   38.2560   28.7670 N   0  0  0  0  0  0  0  0  0  0  0  0
   41.8900   37.3250   28.4080 C   0  0  0  0  0  0  0  0  0  0  0  0
   41.2890   37.2130   27.0170 C   0  0  0  0  0  0  0  0  0  0  0  0
   40.2520   38.5900   26.7590 S   0  0  0  0  0  0  0  0  0  0  0  0
   43.2680   38.2940   30.0910 C   0  0  0  0  0  0  0  0  0  0  0  0
   41.8270   36.3960   30.5740 C   0  0  0  0  0  0  0  0  0  0  0  0
   41.3180   35.2540   31.3590 C   0  0  0  0  0  0  0  0  0  0  0  0
   42.7120   37.4160   31.0430 C   0  0  0  0  0  0  0  0  0  0  0  0
   41.4370   36.4630   29.3070 N   0  0  0  0  0  0  0  0  0  0  0  0
   44.1930   39.0040   30.5900 O   0  0  0  0  0  0  0  0  0  0  0  0
  1  5  1  0
  2  1  2  0
  2  9  1  0
  3  2  1  0
  4  3  1  0
  5 10  2  0
  5  8  1  0
  6  8  1  0
  6  7  1  0
  9  6  2  0
M  END
$$$$

     RDKit          3D

 11 11  0  0  0  0  0  0  0  0999 V2000
   41.8180   36.2960   31.4390 N   0  0  0  0  0  0  0  0  0  0  0  0
   42.7050   36.0560   29.0750 N   0  0  0  0  0  0  0  0  0  0  0  0
   39.9830   38.6120   27.8320 O   0  0  0  0  0  0  0  0  0  0  0  0
   40.9300   37.5510   27.5670 P   0  0  0  0  0  0  0  0  0  0  0  0
   43.7390   37.9020   27.1190 C   0  0  0  0  0  0  0  0  0  0  0  0
   42.4260   38.2330   27.3640 N   0  0  0  0  0  0  0  0  0  0  0  0
   44.0480   36.5410   29.2690 C   0  0  0  0  0  0  0  0  0  0  0  0
   41.4340   36.7880   29.0190 C   0  0  0  0  0  0  0  0  0  0  0  0
   40.8320   36.5720   26.4240 O   0  0  0  0  0  0  0  0  0  0  0  0
   44.5470   37.1720   27.9720 C   0  0  0  0  0  0  0  0  0  0  0  0
   41.3830   37.3600   30.4380 C   0  0  0  0  0  0  0  0  0  0  0  0
  2  7  1  0
  4  9  2  0
  4  3  1  0
  4  8  1  0
  5  6  1  0
  5 10  2  0
  6  4  1  0
  8  2  1  0
  8 11  1  0
 10  7  1  0
 11  1  1  0
M  END
$$$$

     RDKit          3D

 22 22  0  0  0  0  0  0  0  0999 V2000
   28.4900   37.0260   36.4330 O   0  0  0  0  0  0  0  0  0  0  0  0
   35.7000   31.0490   32.1680 C   0  0  0  0  0  0  0  0  0  0  0  0
   33.4860   35.9390   33.7130 C   0  0  0  0  0  0  0  0  0  0  0  0
   30.5620   36.1160   32.8270 C   0  0  0  0  0  0  0  0  0  0  0  0
   37.3300   33.0510   32.6820 C   0  0  0  0  0  0  0  0  0  0  0  0
   36.3550   29.8230   29.5760 O   0  0  0  0  0  0  0  0  0  0  0  0
   31.6620   35.9020   31.7730 C   0  0  0  0  0  0  0  0  0  0  0  0
   34.3340   34.4790   33.8950 C   0  0  0  0  0  0  0  0  0  0  0  0
   30.3100   36.4730   34.1670 O   0  0  0  0  0  0  0  0  0  0  0  0
   30.0220   36.2240   35.6370 P   0  0  0  0  0  0  0  0  0  0  0  0
   37.1260   31.1690   29.9610 C   0  0  0  0  0  0  0  0  0  0  0  0
   34.8620   32.3550   32.1080 C   0  0  0  0  0  0  0  0  0  0  0  0
   36.8810   31.3640   31.3740 C   0  0  0  0  0  0  0  0  0  0  0  0
   34.9240   34.0040   32.7250 C   0  0  0  0  0  0  0  0  0  0  0  0
   35.1360   28.6790   31.2360 C   0  0  0  0  0  0  0  0  0  0  0  0
   30.7840   37.0470   36.7070 O   0  0  0  0  0  0  0  0  0  0  0  0
   36.8860   32.6390   31.6440 C   0  0  0  0  0  0  0  0  0  0  0  0
   31.6540   35.2760   35.4180 C   0  0  0  0  0  0  0  0  0  0  0  0
   38.4330   32.9390   31.7700 C   0  0  0  0  0  0  0  0  0  0  0  0
   29.6310   34.7360   35.7210 O   0  0  0  0  0  0  0  0  0  0  0  0
   35.1810   29.7720   30.1670 C   0  0  0  0  0  0  0  0  0  0  0  0
   32.5360   36.4020   34.5380 C   0  0  0  0  0  0  0  0  0  0  0  0
  3  8  1  0
  3 22  1  0
  4  9  1  0
  6 11  1  0
  6 21  1  0
  7  4  1  0
  9 10  1  0
 10 20  1  0
 10  1  1  0
 10 16  1  0
 12  2  1  0
 12 14  1  0
 13 11  1  0
 13 17  1  0
 13  2  1  0
 14  8  1  0
 17 19  1  0
 17  5  1  0
 18 10  1  0
 19  5  1  0
 21 15  1  0
 22 18  1  0
M  END
$$$$

     RDKit          3D

 10 10  0  0  0  0  0  0  0  0999 V2000
   39.8430   38.5890   27.7670 O   0  0  0  0  0  0  0  0  0  0  0  0
   41.9100   39.7120   28.4690 O   0  0  0  0  0  0  0  0  0  0  0  0
   41.5030   36.3430   28.0760 O   0  0  0  0  0  0  0  0  0  0  0  0
   41.2100   39.3530   27.2850 S   0  0  0  0  0  0  0  0  0  0  0  0
   41.6330   37.0130   27.0300 C   0  0  0  0  0  0  0  0  0  0  0  0
   40.5460   36.9960   26.1180 C   0  0  0  0  0  0  0  0  0  0  0  0
   40.5670   38.0860   25.0900 O   0  0  0  0  0  0  0  0  0  0  0  0
   42.3070   38.1860   26.7500 N   0  0  0  0  0  0  0  0  0  0  0  0
   39.9620   39.5780   26.8170 C   0  0  0  0  0  0  0  0  0  0  0  0
   38.9950   40.6100   26.3710 C   0  0  0  0  0  0  0  0  0  0  0  0
  4  1  1  0
  4  2  1  0
  5  3  2  0
  6  5  1  0
  7  6  1  0
  8  5  1  0
  8  4  1  0
  9 10  1  0
  9  4  1  0
  9  1  1  0
M  END
$$$$

     RDKit          3D

 14 14  0  0  0  0  0  0  0  0999 V2000
   40.7500   37.2320   27.5380 C   0  0  0  0  0  0  0  0  0  0  0  0
   41.2400   38.0000   28.6410 C   0  0  0  0  0  0  0  0  0  0  0  0
   40.8950   39.2020   28.8490 O   0  0  0  0  0  0  0  0  0  0  0  0
   42.1160   36.5980   30.6510 C   0  0  0  0  0  0  0  0  0  0  0  0
   40.3190   36.1060   27.8970 O   0  0  0  0  0  0  0  0  0  0  0  0
   43.7150   36.2610   29.0230 O   0  0  0  0  0  0  0  0  0  0  0  0
   43.6780   39.8980   29.0660 C   0  0  0  0  0  0  0  0  0  0  0  0
   43.1010   39.4110   30.0100 C   0  0  0  0  0  0  0  0  0  0  0  0
   40.7630   37.7980   26.3880 O   0  0  0  0  0  0  0  0  0  0  0  0
   42.7820   37.9170   30.4540 C   0  0  0  0  0  0  0  0  0  0  0  0
   44.3110   40.9750   28.3400 C   0  0  0  0  0  0  0  0  0  0  0  0
   43.0410   35.5810   31.1670 O   0  0  0  0  0  0  0  0  0  0  0  0
   44.8840   41.9200   29.2900 C   0  0  0  0  0  0  0  0  0  0  0  0
   42.4120   37.0490   29.2180 C   0  0  0  0  0  0  0  0  0  0  0  0
  1  5  1  0
  1  2  1  0
  2  3  2  0
  2 14  1  0
  4 12  1  0
  7  8  2  3
  9  1  2  0
 10  8  1  0
 10  4  1  0
 11  7  1  0
 11 13  1  0
 14  6  1  0
 14 10  1  0
 14  4  1  0
M  END
$$$$

     RDKit          3D

 16 15  0  0  0  0  0  0  0  0999 V2000
   41.9250   36.9090   31.4500 C   0  0  0  0  0  0  0  0  0  0  0  0
   42.2970   38.7710   28.6790 O   0  0  0  0  0  0  0  0  0  0  0  0
   44.1040   36.7730   27.9950 N   0  0  0  0  0  0  0  0  0  0  0  0
   39.1340   40.4070   25.2880 C   0  0  0  0  0  0  0  0  0  0  0  0
   41.8580   37.8410   30.7340 C   0  0  0  0  0  0  0  0  0  0  0  0
   42.9400   36.7820   27.0980 C   0  0  0  0  0  0  0  0  0  0  0  0
   39.5780   39.7540   26.4920 N   0  0  0  0  0  0  0  0  0  0  0  0
   40.5980   37.8710   27.2560 C   0  0  0  0  0  0  0  0  0  0  0  0
   42.8780   38.0680   29.7040 C   0  0  0  0  0  0  0  0  0  0  0  0
   45.7890   37.6910   29.3930 O   0  0  0  0  0  0  0  0  0  0  0  0
   43.2110   37.7450   25.5550 S   0  0  0  0  0  0  0  0  0  0  0  0
   42.8530   35.6510   29.4930 O   0  0  0  0  0  0  0  0  0  0  0  0
   41.6770   37.1240   27.6750 O   0  0  0  0  0  0  0  0  0  0  0  0
   44.9830   36.8620   30.2190 C   0  0  0  0  0  0  0  0  0  0  0  0
   43.7220   36.6880   29.3730 C   0  0  0  0  0  0  0  0  0  0  0  0
   40.7540   39.0920   26.6660 O   0  0  0  0  0  0  0  0  0  0  0  0
  3 15  1  0
  4  7  1  0
  5  1  2  0
  6 11  1  0
  6 13  1  0
  6  3  1  0
  7 16  1  0
  8 13  1  0
  9  2  1  0
  9  5  1  0
 10 14  1  0
 15 12  1  0
 15  9  1  0
 15 14  1  0
 16  8  1  0
M  END
$$$$

     RDKit          3D

 11 10  0  0  0  0  0  0  0  0999 V2000
   43.1530   35.9310   29.7490 O   0  0  0  0  0  0  0  0  0  0  0  0
   40.9290   36.1820   28.7730 O   0  0  0  0  0  0  0  0  0  0  0  0
   40.0480   37.0080   26.4320 O   0  0  0  0  0  0  0  0  0  0  0  0
   41.7640   38.5710   29.8550 C   0  0  0  0  0  0  0  0  0  0  0  0
   41.0940   37.4160   27.5090 P   0  0  0  0  0  0  0  0  0  0  0  0
   41.3190   35.8500   31.3800 C   0  0  0  0  0  0  0  0  0  0  0  0
   41.7860   35.8840   29.9470 C   0  0  0  0  0  0  0  0  0  0  0  0
   40.6440   37.7600   29.1450 C   0  0  0  0  0  0  0  0  0  0  0  0
   40.9780   39.8540   26.6640 C   0  0  0  0  0  0  0  0  0  0  0  0
   42.2650   38.3480   30.9410 O   0  0  0  0  0  0  0  0  0  0  0  0
   41.8640   38.7640   26.9230 O   0  0  0  0  0  0  0  0  0  0  0  0
  1  7  2  0
  2  8  1  0
  2  7  1  0
  4 10  2  0
  5  3  1  0
  5  8  1  0
  7  6  1  0
  8  4  1  0
  9 11  1  0
 11  5  1  0
M  END
$$$$

     RDKit          3D

 12 12  0  0  0  0  0  0  0  0999 V2000
   43.9450   38.6940   29.3630 O   0  0  0  0  0  0  0  0  0  0  0  0
   42.1020   35.8900   31.9630 C   0  0  0  0  0  0  0  0  0  0  0  0
   41.5400   37.9300   30.1710 C   0  0  0  0  0  0  0  0  0  0  0  0
   40.9990   35.6250   29.9230 O   0  0  0  0  0  0  0  0  0  0  0  0
   43.7870   37.3280   28.9810 C   0  0  0  0  0  0  0  0  0  0  0  0
   41.9950   36.5050   30.5470 C   0  0  0  0  0  0  0  0  0  0  0  0
   42.9960   37.6680   26.5880 C   0  0  0  0  0  0  0  0  0  0  0  0
   40.4090   38.0300   27.8570 O   0  0  0  0  0  0  0  0  0  0  0  0
   44.3480   38.0860   26.4890 O   0  0  0  0  0  0  0  0  0  0  0  0
   43.4420   36.4150   30.0980 N   0  0  0  0  0  0  0  0  0  0  0  0
   42.5870   37.2380   28.0080 C   0  0  0  0  0  0  0  0  0  0  0  0
   41.5430   38.0800   28.6430 C   0  0  0  0  0  0  0  0  0  0  0  0
  3  6  1  0
  4  6  1  0
  5  1  1  0
  5 10  1  0
  6  2  1  0
  9  7  1  0
 10  6  1  0
 11  7  1  0
 11 12  1  0
 11  5  1  0
 12  8  1  0
 12  3  1  0
M  END
$$$$

     RDKit          3D

 15 17  0  0  0  0  0  0  0  0999 V2000
   40.8230   37.4910   25.2510 C   0  0  0  0  0  0  0  0  0  0  0  0
   41.0260   37.4390   26.7130 C   0  0  0  0  0  0  0  0  0  0  0  0
   40.5590   39.7390   26.7970 C   0  0  0  0  0  0  0  0  0  0  0  0
   39.0120   41.1380   24.8410 Br  0  0  0  0  0  0  0  0  0  0  0  0
   40.0170   39.5840   25.5060 C   0  0  0  0  0  0  0  0  0  0  0  0
   40.2710   38.6170   24.7720 C   0  0  0  0  0  0  0  0  0  0  0  0
   41.9560   36.2510   30.5170 C   0  0  0  0  0  0  0  0  0  0  0  0
   41.6300   38.6920   27.2840 C   0  0  0  0  0  0  0  0  0  0  0  0
   42.9780   36.0290   29.7600 N   0  0  0  0  0  0  0  0  0  0  0  0
   41.2460   37.3530   30.6280 C   0  0  0  0  0  0  0  0  0  0  0  0
   41.3900   38.4920   29.7900 C   0  0  0  0  0  0  0  0  0  0  0  0
   43.2200   36.9910   28.7560 C   0  0  0  0  0  0  0  0  0  0  0  0
   41.9100   37.7290   28.4870 C   0  0  0  0  0  0  0  0  0  0  0  0
   40.9500   36.8020   28.0420 O   0  0  0  0  0  0  0  0  0  0  0  0
   41.5840   35.1410   31.4640 C   0  0  0  0  0  0  0  0  0  0  0  0
  2  1  1  0
  2  8  1  0
  2 14  1  0
  4  5  1  0
  5  3  2  0
  6  1  2  0
  6  5  1  0
  7 10  1  0
  7 15  1  0
  8  3  1  0
  8 13  1  0
  9  7  2  0
 11 10  1  0
 12  9  1  0
 13 12  1  0
 13 11  1  0
 14 13  1  0
M  END
$$$$

     RDKit          3D

 13 12  0  0  0  0  0  0  0  0999 V2000
   40.2330   39.7250   26.9710 N   0  0  0  0  0  0  0  0  0  0  0  0
   40.8260   38.6510   26.6260 C   0  0  0  0  0  0  0  0  0  0  0  0
   41.6360   34.9690   31.2370 C   0  0  0  0  0  0  0  0  0  0  0  0
   43.8130   38.0340   29.2410 O   0  0  0  0  0  0  0  0  0  0  0  0
   40.4530   36.2520   26.5510 N   0  0  0  0  0  0  0  0  0  0  0  0
   42.4920   35.9560   31.9100 N   0  0  0  0  0  0  0  0  0  0  0  0
   41.5980   37.3450   29.9920 C   0  0  0  0  0  0  0  0  0  0  0  0
   40.9890   37.3900   27.3940 C   0  0  0  0  0  0  0  0  0  0  0  0
   43.5560   36.8820   31.3930 C   0  0  0  0  0  0  0  0  0  0  0  0
   41.1110   38.0940   28.7600 C   0  0  0  0  0  0  0  0  0  0  0  0
   41.5300   38.6530   25.5220 N   0  0  0  0  0  0  0  0  0  0  0  0
   43.0530   37.5080   30.0790 C   0  0  0  0  0  0  0  0  0  0  0  0
   41.7650   39.2840   24.4180 C   0  0  0  0  0  0  0  0  0  0  0  0
  2  1  2  0
  2  8  1  0
  3  6  1  0
  4 12  2  0
  7 12  1  0
  8  5  1  0
  8 10  1  0
  9  6  1  0
 10  7  1  0
 11  2  1  0
 12  9  1  0
 13 11  2  0
M  END
$$$$

     RDKit          3D

 19 20  0  0  0  0  0  0  0  0999 V2000
   41.4000   37.6050   27.7150 C   0  0  0  0  0  0  0  0  0  0  0  0
   39.1450   38.8830   25.1800 N   0  0  0  0  0  0  0  0  0  0  0  0
   37.6100   40.4160   26.1810 C   0  0  0  0  0  0  0  0  0  0  0  0
   38.8370   39.8390   26.1000 C   0  0  0  0  0  0  0  0  0  0  0  0
   38.4750   37.5420   23.5230 O   0  0  0  0  0  0  0  0  0  0  0  0
   41.1580   35.8480   30.1860 C   0  0  0  0  0  0  0  0  0  0  0  0
   40.5660   37.1950   26.4440 C   0  0  0  0  0  0  0  0  0  0  0  0
   40.6230   38.5490   28.3570 O   0  0  0  0  0  0  0  0  0  0  0  0
   43.5340   36.0980   30.7130 C   0  0  0  0  0  0  0  0  0  0  0  0
   36.9440   39.0390   24.3890 N   0  0  0  0  0  0  0  0  0  0  0  0
   40.4750   38.2070   25.2730 C   0  0  0  0  0  0  0  0  0  0  0  0
   43.6460   38.0500   28.6770 O   0  0  0  0  0  0  0  0  0  0  0  0
   38.2210   38.4280   24.3060 C   0  0  0  0  0  0  0  0  0  0  0  0
   35.3890   40.3740   25.3300 O   0  0  0  0  0  0  0  0  0  0  0  0
   42.5130   36.2610   29.6040 C   0  0  0  0  0  0  0  0  0  0  0  0
   42.5810   37.3630   28.7190 C   0  0  0  0  0  0  0  0  0  0  0  0
   36.5610   40.0160   25.2870 C   0  0  0  0  0  0  0  0  0  0  0  0
   42.7030   36.0770   31.9740 N   0  0  0  0  0  0  0  0  0  0  0  0
   41.4460   35.3570   31.6060 C   0  0  0  0  0  0  0  0  0  0  0  0
  1  8  1  0
  1 16  1  0
  2 11  1  0
  2  4  1  0
  4  3  2  0
  5 13  2  0
  6 19  1  0
  7  1  1  0
  9 18  1  0
 10 17  1  0
 11  7  1  0
 12 16  2  0
 13 10  1  0
 13  2  1  0
 15 16  1  0
 15  6  1  0
 15  9  1  0
 17 14  2  0
 17  3  1  0
 19 18  1  0
M  END
$$$$

     RDKit          3D

 10  9  0  0  0  0  0  0  0  0999 V2000
   40.1240   38.3100   27.4370 C   0  0  0  0  0  0  0  0  0  0  0  0
   42.9800   36.5790   30.4480 C   0  0  0  0  0  0  0  0  0  0  0  0
   43.7170   38.4110   31.7610 O   0  0  0  0  0  0  0  0  0  0  0  0
   44.4820   36.2990   32.0640 O   0  0  0  0  0  0  0  0  0  0  0  0
   42.3640   36.9790   28.0240 C   0  0  0  0  0  0  0  0  0  0  0  0
   43.4920   36.9670   29.0650 C   0  0  0  0  0  0  0  0  0  0  0  0
   41.4510   38.3360   28.4290 S   0  0  0  0  0  0  0  0  0  0  0  0
   43.8610   37.1850   31.4950 C   0  0  0  0  0  0  0  0  0  0  0  0
   42.8960   37.0400   26.6960 N   0  0  0  0  0  0  0  0  0  0  0  0
   41.6730   36.9850   30.9310 N   0  0  0  0  0  0  0  0  0  0  0  0
  1  7  1  0
  2 10  1  0
  2  8  1  0
  5  9  1  0
  5  7  1  0
  5  6  1  0
  6  2  1  0
  8  3  2  0
  8  4  1  0
M  END
$$$$

     RDKit          3D

 16 16  0  0  0  0  0  0  0  0999 V2000
   38.0220   39.8220   25.3000 O   0  0  0  0  0  0  0  0  0  0  0  0
   40.2410   39.3600   26.0180 C   0  0  0  0  0  0  0  0  0  0  0  0
   41.0170   36.6350   28.7480 C   0  0  0  0  0  0  0  0  0  0  0  0
   40.4420   36.5400   26.4130 O   0  0  0  0  0  0  0  0  0  0  0  0
   43.3220   37.7410   28.4030 O   0  0  0  0  0  0  0  0  0  0  0  0
   39.2670   39.3070   25.0420 C   0  0  0  0  0  0  0  0  0  0  0  0
   43.5760   36.5490   31.9820 C   0  0  0  0  0  0  0  0  0  0  0  0
   44.7380   36.7100   31.0680 C   0  0  0  0  0  0  0  0  0  0  0  0
   45.5940   35.5040   31.3220 O   0  0  0  0  0  0  0  0  0  0  0  0
   40.6240   37.2950   27.3830 C   0  0  0  0  0  0  0  0  0  0  0  0
   42.4030   37.4700   29.5120 S   0  0  0  0  0  0  0  0  0  0  0  0
   40.4270   38.6340   27.2400 N   0  0  0  0  0  0  0  0  0  0  0  0
   39.6400   38.8330   23.8640 N   0  0  0  0  0  0  0  0  0  0  0  0
   43.3220   37.4040   32.8120 O   0  0  0  0  0  0  0  0  0  0  0  0
   43.3640   36.3280   30.5410 C   0  0  0  0  0  0  0  0  0  0  0  0
   41.9100   38.5460   30.4650 O   0  0  0  0  0  0  0  0  0  0  0  0
  2 12  1  0
  3 11  1  0
  4 10  2  0
  5 11  2  0
  6  1  2  0
  6  2  1  0
  7 14  1  0
  8  9  1  0
  8  7  1  0
 10  3  1  0
 11 16  2  0
 12 10  1  0
 13  6  1  0
 15 11  1  0
 15  8  1  0
 15  7  1  0
M  END
$$$$

     RDKit          3D

 11 10  0  0  0  0  0  0  0  0999 V2000
   42.5850   38.9620   29.1540 O   0  0  0  0  0  0  0  0  0  0  0  0
   43.1900   37.0320   26.8700 O   0  0  0  0  0  0  0  0  0  0  0  0
   42.7390   36.7000   31.8700 N   0  0  0  0  0  0  0  0  0  0  0  0
   40.7710   33.9790   31.1630 C   0  0  0  0  0  0  0  0  0  0  0  0
   41.9780   36.1180   30.7460 C   0  0  0  0  0  0  0  0  0  0  0  0
   42.0240   37.2560   27.3250 C   0  0  0  0  0  0  0  0  0  0  0  0
   43.9820   36.4430   29.4880 O   0  0  0  0  0  0  0  0  0  0  0  0
   42.0960   34.6200   30.8570 C   0  0  0  0  0  0  0  0  0  0  0  0
   40.9330   36.9830   26.8390 O   0  0  0  0  0  0  0  0  0  0  0  0
   42.6730   36.6090   29.4890 C   0  0  0  0  0  0  0  0  0  0  0  0
   41.9680   37.7080   28.7780 C   0  0  0  0  0  0  0  0  0  0  0  0
  2  6  1  0
  5  8  1  0
  5  3  1  0
  6 11  1  0
  8  4  1  0
  9  6  2  0
 10  7  1  0
 10  5  1  0
 11  1  1  0
 11 10  1  0
M  END
$$$$

     RDKit          3D

 14 14  0  0  0  0  0  0  0  0999 V2000
   42.0190   38.5110   30.1030 C   0  0  0  0  0  0  0  0  0  0  0  0
   42.6090   39.5080   29.1440 C   0  0  0  0  0  0  0  0  0  0  0  0
   43.0550   37.4230   30.2470 C   0  0  0  0  0  0  0  0  0  0  0  0
   42.8960   37.9030   27.0960 C   0  0  0  0  0  0  0  0  0  0  0  0
   42.7030   36.3220   29.2050 C   0  0  0  0  0  0  0  0  0  0  0  0
   42.8290   40.5890   29.6400 O   0  0  0  0  0  0  0  0  0  0  0  0
   44.5200   36.0510   27.3660 O   0  0  0  0  0  0  0  0  0  0  0  0
   44.3640   37.2900   30.3870 O   0  0  0  0  0  0  0  0  0  0  0  0
   41.4070   35.7820   29.7310 C   0  0  0  0  0  0  0  0  0  0  0  0
   42.7800   39.1800   27.7910 C   0  0  0  0  0  0  0  0  0  0  0  0
   42.8770   40.2490   27.0310 C   0  0  0  0  0  0  0  0  0  0  0  0
   43.3850   36.7440   27.8540 C   0  0  0  0  0  0  0  0  0  0  0  0
   41.6180   35.1620   31.0130 N   0  0  0  0  0  0  0  0  0  0  0  0
   41.0650   36.0570   31.9310 O   0  0  0  0  0  0  0  0  0  0  0  0
  1  3  1  0
  2  6  2  0
  2  1  1  0
  3  8  1  0
  4 10  1  0
  4 12  1  0
  5  9  1  0
  5  3  1  0
  9 13  1  0
 10  2  1  0
 11 10  2  0
 12  7  1  0
 12  5  1  0
 13 14  1  0
M  END
$$$$

     RDKit          3D

 14 14  0  0  0  0  0  0  0  0999 V2000
   41.1710   37.1570   27.0080 C   0  0  0  0  0  0  0  0  0  0  0  0
   43.7910   38.8600   28.4050 O   0  0  0  0  0  0  0  0  0  0  0  0
   40.0370   39.6260   26.3970 C   0  0  0  0  0  0  0  0  0  0  0  0
   42.8700   36.4390   31.8930 C   0  0  0  0  0  0  0  0  0  0  0  0
   41.5430   38.3010   27.6910 C   0  0  0  0  0  0  0  0  0  0  0  0
   42.5930   38.1200   28.6980 C   0  0  0  0  0  0  0  0  0  0  0  0
   40.3170   37.2660   25.9030 C   0  0  0  0  0  0  0  0  0  0  0  0
   40.9390   39.5280   27.4450 C   0  0  0  0  0  0  0  0  0  0  0  0
   41.0190   35.2100   30.5950 C   0  0  0  0  0  0  0  0  0  0  0  0
   43.7040   38.5650   31.0950 O   0  0  0  0  0  0  0  0  0  0  0  0
   43.1340   37.4880   30.8140 C   0  0  0  0  0  0  0  0  0  0  0  0
   42.3060   35.1430   31.3610 C   0  0  0  0  0  0  0  0  0  0  0  0
   42.6990   37.2260   29.5500 N   0  0  0  0  0  0  0  0  0  0  0  0
   39.7300   38.4970   25.6250 C   0  0  0  0  0  0  0  0  0  0  0  0
  1  5  1  0
  2  6  2  0
  3  8  1  0
  5  6  1  0
  6 13  1  0
  7  1  2  0
  8  5  2  0
  9 12  1  0
 11 10  2  0
 11  4  1  0
 12  4  1  0
 13 11  1  0
 14  7  1  0
 14  3  2  0
M  END
$$$$

     RDKit          3D

 10 10  0  0  0  0  0  0  0  0999 V2000
   44.0780   37.4600   28.2830 N   0  0  0  0  0  0  0  0  0  0  0  0
   42.0580   38.7240   29.0300 C   0  0  0  0  0  0  0  0  0  0  0  0
   42.8000   36.8610   30.9850 C   0  0  0  0  0  0  0  0  0  0  0  0
   42.7410   39.8020   28.9020 O   0  0  0  0  0  0  0  0  0  0  0  0
   41.4210   34.7750   31.2500 C   0  0  0  0  0  0  0  0  0  0  0  0
   42.2500   35.8480   31.8920 N   0  0  0  0  0  0  0  0  0  0  0  0
   40.9930   38.8180   29.6200 O   0  0  0  0  0  0  0  0  0  0  0  0
   42.1510   36.5310   29.6610 C   0  0  0  0  0  0  0  0  0  0  0  0
   42.5490   37.4050   28.4880 C   0  0  0  0  0  0  0  0  0  0  0  0
   41.4800   35.2530   29.8680 N   0  0  0  0  0  0  0  0  0  0  0  0
  2  7  1  0
  3  6  1  0
  4  2  2  0
  5  6  1  0
  8 10  1  0
  8  3  2  0
  9  1  1  0
  9  2  1  0
  9  8  1  0
 10  5  2  0
M  END
$$$$

     RDKit          3D

 12 12  0  0  0  0  0  0  0  0999 V2000
   41.9000   37.8390   30.9980 C   0  0  0  0  0  0  0  0  0  0  0  0
   43.0180   39.9870   30.3310 O   0  0  0  0  0  0  0  0  0  0  0  0
   40.6330   36.0420   26.7270 O   0  0  0  0  0  0  0  0  0  0  0  0
   43.6170   36.7000   29.6000 C   0  0  0  0  0  0  0  0  0  0  0  0
   42.7580   39.1390   31.2790 C   0  0  0  0  0  0  0  0  0  0  0  0
   42.4720   39.5440   32.5170 O   0  0  0  0  0  0  0  0  0  0  0  0
   41.6470   37.1710   28.4100 C   0  0  0  0  0  0  0  0  0  0  0  0
   44.7640   36.1540   29.6730 O   0  0  0  0  0  0  0  0  0  0  0  0
   40.9490   37.4600   27.0890 C   0  0  0  0  0  0  0  0  0  0  0  0
   40.8600   38.1170   29.6170 S   0  0  0  0  0  0  0  0  0  0  0  0
   43.1430   37.4230   28.3580 C   0  0  0  0  0  0  0  0  0  0  0  0
   42.8290   36.7130   30.9090 C   0  0  0  0  0  0  0  0  0  0  0  0
  1  5  1  0
  2  5  2  0
  3  9  1  0
  4  8  2  0
  4 12  1  0
  5  6  1  0
  7  9  1  0
  7 10  1  0
 10  1  1  0
 11  7  1  0
 11  4  1  0
 12  1  1  0
M  END
$$$$

     RDKit          3D

 10  9  0  0  0  0  0  0  0  0999 V2000
   43.6030   38.8350   29.0800 C   0  0  0  0  0  0  0  0  0  0  0  0
   41.9310   37.4690   30.1660 C   0  0  0  0  0  0  0  0  0  0  0  0
   43.3540   37.4520   29.6500 C   0  0  0  0  0  0  0  0  0  0  0  0
   41.7900   36.3570   31.4920 N   0  0  0  0  0  0  0  0  0  0  0  0
   42.0480   37.5060   26.7000 O   0  0  0  0  0  0  0  0  0  0  0  0
   40.5170   36.4730   28.4190 O   0  0  0  0  0  0  0  0  0  0  0  0
   44.1530   37.3600   30.8180 C   0  0  0  0  0  0  0  0  0  0  0  0
   40.8450   39.1850   28.2450 O   0  0  0  0  0  0  0  0  0  0  0  0
   43.7430   36.4040   28.7110 O   0  0  0  0  0  0  0  0  0  0  0  0
   41.2220   37.7340   28.3050 P   0  0  0  0  0  0  0  0  0  0  0  0
  1  3  1  0
  2  4  1  0
  3  2  1  0
  3  7  1  0
  5 10  2  0
  8 10  1  0
  9  3  1  0
 10  6  1  0
 10  2  1  0
M  END
$$$$
