
     RDKit          3D

 16 16  0  0  0  0  0  0  0  0999 V2000
   45.6690   38.8270   32.4790 C   0  0  0  0  0  0  0  0  0  0  0  0
   41.7680   37.5840   29.5150 O   0  0  0  0  0  0  0  0  0  0  0  0
   44.2930   38.4990   33.0940 C   0  0  0  0  0  0  0  0  0  0  0  0
   44.8440   38.9100   35.4930 C   0  0  0  0  0  0  0  0  0  0  0  0
   44.0010   36.9500   33.1070 C   0  0  0  0  0  0  0  0  0  0  0  0
   44.9920   37.6740   35.7520 O   0  0  0  0  0  0  0  0  0  0  0  0
   43.2010   36.5300   31.9120 N   0  0  0  0  0  0  0  0  0  0  0  0
   44.0930   39.3740   34.3770 C   0  0  0  0  0  0  0  0  0  0  0  0
   44.2030   40.3140   28.5870 C   0  0  0  0  0  0  0  0  0  0  0  0
   43.0580   38.9040   32.2780 C   0  0  0  0  0  0  0  0  0  0  0  0
   43.5440   37.8500   31.2600 C   0  0  0  0  0  0  0  0  0  0  0  0
   45.3810   39.8920   36.2410 O   0  0  0  0  0  0  0  0  0  0  0  0
   44.2970   37.3920   29.1420 O   0  0  0  0  0  0  0  0  0  0  0  0
   43.2050   39.6780   29.3820 N   0  0  0  0  0  0  0  0  0  0  0  0
   43.3960   40.3790   34.1900 O   0  0  0  0  0  0  0  0  0  0  0  0
   43.0810   38.0120   29.6420 S   0  0  0  0  0  0  0  0  0  0  0  0
  2 16  2  0
  3  1  1  0
  3  5  1  0
  3  8  1  0
  4  6  2  0
  4 12  1  0
  7  5  1  0
  8  4  1  0
  9 14  1  0
 10  3  1  0
 11 16  1  0
 11  7  1  0
 11 10  1  0
 13 16  2  0
 14 16  1  0
 15  8  2  0
M  END
$$$$

     RDKit          3D

 23 25  0  0  0  0  0  0  0  0999 V2000
   41.2560   36.0820   33.4600 N   0  0  0  0  0  0  0  0  0  0  0  0
   43.5190   38.5880   35.1280 C   0  0  0  0  0  0  0  0  0  0  0  0
   44.0160   37.0920   31.1140 C   0  0  0  0  0  0  0  0  0  0  0  0
   45.0300   38.9720   39.2160 O   0  0  0  0  0  0  0  0  0  0  0  0
   45.9210   38.5230   35.2310 O   0  0  0  0  0  0  0  0  0  0  0  0
   46.9200   37.9980   37.4390 O   0  0  0  0  0  0  0  0  0  0  0  0
   43.7620   36.9570   33.3500 C   0  0  0  0  0  0  0  0  0  0  0  0
   42.8830   37.4030   32.1420 C   0  0  0  0  0  0  0  0  0  0  0  0
   43.3760   39.2470   38.9970 C   0  0  0  0  0  0  0  0  0  0  0  0
   45.1120   38.4040   37.6270 S   0  0  0  0  0  0  0  0  0  0  0  0
   41.7720   38.9260   30.4010 C   0  0  0  0  0  0  0  0  0  0  0  0
   43.1890   37.3830   34.5890 N   0  0  0  0  0  0  0  0  0  0  0  0
   42.6370   38.7140   40.3140 C   0  0  0  0  0  0  0  0  0  0  0  0
   44.7050   38.6000   36.0080 C   0  0  0  0  0  0  0  0  0  0  0  0
   44.8260   39.8660   37.0740 C   0  0  0  0  0  0  0  0  0  0  0  0
   41.7620   36.3170   32.1070 C   0  0  0  0  0  0  0  0  0  0  0  0
   42.2300   38.8370   31.9890 C   0  0  0  0  0  0  0  0  0  0  0  0
   43.3420   40.1770   37.7500 C   0  0  0  0  0  0  0  0  0  0  0  0
   43.8460   37.6910   29.8020 C   0  0  0  0  0  0  0  0  0  0  0  0
   44.8310   37.2900   28.6970 C   0  0  0  0  0  0  0  0  0  0  0  0
   43.4940   39.1740   41.3500 O   0  0  0  0  0  0  0  0  0  0  0  0
   42.8320   38.5020   29.4690 C   0  0  0  0  0  0  0  0  0  0  0  0
   42.9680   39.6130   34.8710 O   0  0  0  0  0  0  0  0  0  0  0  0
  2 14  1  0
  3  8  1  0
  7 12  1  0
  8 16  1  0
  8  7  1  0
  9  4  1  0
  9 13  1  0
 10  6  1  0
 10  4  1  0
 11 17  1  0
 12  2  1  0
 13 21  1  0
 14  5  1  0
 14 15  1  0
 14 10  1  0
 15 10  1  0
 15 18  1  0
 16  1  1  0
 17  8  1  0
 18  9  1  0
 19  3  1  0
 20 19  1  0
 22 19  2  0
 22 11  1  0
 23  2  2  0
M  END
$$$$

     RDKit          3D

 11 10  0  0  0  0  0  0  0  0999 V2000
   44.5280   40.1640   30.7860 O   0  0  0  0  0  0  0  0  0  0  0  0
   43.6690   36.8690   29.5940 O   0  0  0  0  0  0  0  0  0  0  0  0
   43.2310   39.1290   33.9250 C   0  0  0  0  0  0  0  0  0  0  0  0
   43.9200   38.3310   29.5950 P   0  0  0  0  0  0  0  0  0  0  0  0
   45.6990   39.3510   32.9640 O   0  0  0  0  0  0  0  0  0  0  0  0
   44.6510   38.9090   32.9160 P   0  0  0  0  0  0  0  0  0  0  0  0
   45.1550   37.6280   33.2550 O   0  0  0  0  0  0  0  0  0  0  0  0
   43.2150   38.2340   35.1170 O   0  0  0  0  0  0  0  0  0  0  0  0
   45.2100   38.7000   28.9350 O   0  0  0  0  0  0  0  0  0  0  0  0
   42.7130   38.9260   28.9290 O   0  0  0  0  0  0  0  0  0  0  0  0
   43.7990   38.6570   31.2600 C   0  0  0  0  0  0  0  0  0  0  0  0
  2  4  1  0
  3  8  1  0
  4 11  1  0
  6  5  2  0
  6  7  1  0
  6  3  1  0
  9  4  1  0
 10  4  2  0
 11  1  1  0
 11  6  1  0
M  END
$$$$

     RDKit          3D

 27 27  0  0  0  0  0  0  0  0999 V2000
   46.1490   36.0840   35.0370 C   0  0  0  0  0  0  0  0  0  0  0  0
   44.8460   38.2130   34.6760 C   0  0  0  0  0  0  0  0  0  0  0  0
   43.6710   37.8080   33.7160 C   0  0  0  0  0  0  0  0  0  0  0  0
   42.6990   41.4980   25.7680 C   0  0  0  0  0  0  0  0  0  0  0  0
   44.1970   36.7070   31.3660 C   0  0  0  0  0  0  0  0  0  0  0  0
   42.1020   35.9980   32.9690 C   0  0  0  0  0  0  0  0  0  0  0  0
   40.2810   31.4330   32.7980 C   0  0  0  0  0  0  0  0  0  0  0  0
   44.5930   39.3450   30.4610 O   0  0  0  0  0  0  0  0  0  0  0  0
   44.2590   39.2950   31.7250 C   0  0  0  0  0  0  0  0  0  0  0  0
   43.5910   37.1430   30.0540 N   0  0  0  0  0  0  0  0  0  0  0  0
   42.4170   37.8050   26.6120 N   0  0  0  0  0  0  0  0  0  0  0  0
   41.2540   34.9060   33.3960 C   0  0  0  0  0  0  0  0  0  0  0  0
   41.5150   33.6560   33.1740 C   0  0  0  0  0  0  0  0  0  0  0  0
   41.0610   40.6110   27.8170 N   0  0  0  0  0  0  0  0  0  0  0  0
   40.5090   32.9070   32.4410 C   0  0  0  0  0  0  0  0  0  0  0  0
   42.3880   39.4880   29.4810 C   0  0  0  0  0  0  0  0  0  0  0  0
   43.6740   38.6110   29.6020 C   0  0  0  0  0  0  0  0  0  0  0  0
   39.9440   33.2540   31.2590 O   0  0  0  0  0  0  0  0  0  0  0  0
   46.3500   37.3830   32.9260 O   0  0  0  0  0  0  0  0  0  0  0  0
   44.1100   37.9120   32.2640 C   0  0  0  0  0  0  0  0  0  0  0  0
   40.4590   40.5440   26.4960 C   0  0  0  0  0  0  0  0  0  0  0  0
   46.2060   37.4420   34.3280 C   0  0  0  0  0  0  0  0  0  0  0  0
   41.1960   41.4810   25.5590 C   0  0  0  0  0  0  0  0  0  0  0  0
   42.5970   37.0040   33.9070 N   0  0  0  0  0  0  0  0  0  0  0  0
   43.2730   40.2500   32.4640 C   0  0  0  0  0  0  0  0  0  0  0  0
   41.9100   39.5170   28.0780 C   0  0  0  0  0  0  0  0  0  0  0  0
   42.1160   38.5250   27.2750 C   0  0  0  0  0  0  0  0  0  0  0  0
  3 24  1  0
  3  2  1  0
  5 20  1  0
  6 12  1  0
  6 24  1  0
  8  9  1  0
  9 20  1  0
  9 25  1  0
 10  5  1  0
 11 27  3  0
 13 12  1  0
 14 26  1  0
 15  7  1  0
 15 13  1  0
 17 16  1  0
 17 10  1  0
 17  8  1  0
 18 15  1  0
 19 22  1  0
 20  3  1  0
 21 14  1  0
 22  2  1  0
 22  1  1  0
 23  4  1  0
 23 21  1  0
 26 27  1  0
 26 16  1  0
M  END
$$$$

     RDKit          3D

 13 13  0  0  0  0  0  0  0  0999 V2000
   44.7400   40.9900   29.1380 N   0  0  0  0  0  0  0  0  0  0  0  0
   45.8300   38.2100   33.4320 C   0  0  0  0  0  0  0  0  0  0  0  0
   43.8510   39.6610   31.3280 S   0  0  0  0  0  0  0  0  0  0  0  0
   43.6060   38.2480   30.5240 C   0  0  0  0  0  0  0  0  0  0  0  0
   43.9270   36.8400   33.8740 C   0  0  0  0  0  0  0  0  0  0  0  0
   44.4670   40.5760   30.0050 C   0  0  0  0  0  0  0  0  0  0  0  0
   43.0850   37.4560   32.7290 C   0  0  0  0  0  0  0  0  0  0  0  0
   43.4870   37.3500   35.1680 O   0  0  0  0  0  0  0  0  0  0  0  0
   46.3880   36.0210   33.6140 O   0  0  0  0  0  0  0  0  0  0  0  0
   43.6760   37.0910   31.4360 N   0  0  0  0  0  0  0  0  0  0  0  0
   42.8170   38.9060   32.8550 C   0  0  0  0  0  0  0  0  0  0  0  0
   46.7800   38.8870   32.9240 O   0  0  0  0  0  0  0  0  0  0  0  0
   45.4220   36.9820   33.5810 C   0  0  0  0  0  0  0  0  0  0  0  0
  1  6  3  0
  2 13  1  0
  3  6  1  0
  3 11  1  0
  4  3  1  0
  4 10  1  0
  5  8  1  0
  7 11  1  0
  7  5  1  0
 10  7  1  0
 12  2  2  0
 13  9  1  0
 13  5  1  0
M  END
$$$$

     RDKit          3D

 15 15  0  0  0  0  0  0  0  0999 V2000
   44.8360   40.6640   31.8130 O   0  0  0  0  0  0  0  0  0  0  0  0
   43.3130   41.6010   33.6190 O   0  0  0  0  0  0  0  0  0  0  0  0
   43.6060   38.9440   33.4530 C   0  0  0  0  0  0  0  0  0  0  0  0
   44.7390   38.0910   33.8510 C   0  0  0  0  0  0  0  0  0  0  0  0
   43.2630   38.0530   32.1050 C   0  0  0  0  0  0  0  0  0  0  0  0
   45.3390   40.5750   34.5070 O   0  0  0  0  0  0  0  0  0  0  0  0
   44.9520   41.1060   35.7820 C   0  0  0  0  0  0  0  0  0  0  0  0
   44.3850   40.5710   33.2100 P   0  0  0  0  0  0  0  0  0  0  0  0
   41.9470   36.2070   33.2150 C   0  0  0  0  0  0  0  0  0  0  0  0
   42.5540   37.6450   30.4970 S   0  0  0  0  0  0  0  0  0  0  0  0
   43.3230   36.6480   32.8180 C   0  0  0  0  0  0  0  0  0  0  0  0
   43.7940   38.1750   29.3610 C   0  0  0  0  0  0  0  0  0  0  0  0
   43.3500   38.0110   27.9340 C   0  0  0  0  0  0  0  0  0  0  0  0
   44.1000   36.8040   34.0960 C   0  0  0  0  0  0  0  0  0  0  0  0
   45.0320   37.3480   29.4670 C   0  0  0  0  0  0  0  0  0  0  0  0
  3  8  1  0
  3  4  1  0
  4 14  1  0
  5 10  1  0
  5 11  1  0
  5  3  1  0
  6  7  1  0
  8  1  2  0
  8  2  1  0
  8  6  1  0
 11  9  1  0
 11 14  1  0
 12 15  1  0
 12 10  1  0
 13 12  1  0
M  END
$$$$

     RDKit          3D

 10  9  0  0  0  0  0  0  0  0999 V2000
   41.8810   39.6710   27.0160 C   0  0  0  0  0  0  0  0  0  0  0  0
   44.0290   36.1830   33.1400 N   0  0  0  0  0  0  0  0  0  0  0  0
   42.6020   38.3900   30.2360 C   0  0  0  0  0  0  0  0  0  0  0  0
   41.7030   38.5280   27.9920 C   0  0  0  0  0  0  0  0  0  0  0  0
   43.1520   38.6910   32.8310 S   0  0  0  0  0  0  0  0  0  0  0  0
   43.7680   37.3840   33.7170 C   0  0  0  0  0  0  0  0  0  0  0  0
   42.9830   38.2250   28.7860 C   0  0  0  0  0  0  0  0  0  0  0  0
   45.0100   38.1970   31.0190 C   0  0  0  0  0  0  0  0  0  0  0  0
   43.9580   37.5810   34.9350 O   0  0  0  0  0  0  0  0  0  0  0  0
   43.6620   38.3550   31.2790 C   0  0  0  0  0  0  0  0  0  0  0  0
  1  4  1  0
  2  6  1  0
  3 10  2  3
  4  7  1  0
  5  6  1  0
  6  9  2  0
  7  3  1  0
  8 10  1  0
 10  5  1  0
M  END
$$$$

     RDKit          3D

  9  9  0  0  0  0  0  0  0  0999 V2000
   44.9680   37.2470   31.4940 C   0  0  0  0  0  0  0  0  0  0  0  0
   42.3740   38.3350   30.9910 C   0  0  0  0  0  0  0  0  0  0  0  0
   44.8000   38.1740   30.4470 C   0  0  0  0  0  0  0  0  0  0  0  0
   43.6080   38.9520   30.4490 C   0  0  0  0  0  0  0  0  0  0  0  0
   44.0070   37.1450   32.5990 C   0  0  0  0  0  0  0  0  0  0  0  0
   42.4670   38.9840   33.1800 O   0  0  0  0  0  0  0  0  0  0  0  0
   45.6350   38.2800   29.5290 O   0  0  0  0  0  0  0  0  0  0  0  0
   42.5940   37.8250   32.4010 C   0  0  0  0  0  0  0  0  0  0  0  0
   44.1110   36.2320   33.6610 O   0  0  0  0  0  0  0  0  0  0  0  0
  1  5  1  0
  2  8  1  0
  3  4  1  0
  3  1  1  0
  4  2  1  0
  5  9  1  0
  7  3  2  0
  8  5  1  0
  8  6  1  0
M  END
$$$$

     RDKit          3D

 11 11  0  0  0  0  0  0  0  0999 V2000
   43.9450   37.0300   34.6730 O   0  0  0  0  0  0  0  0  0  0  0  0
   46.0500   38.4260   33.9120 O   0  0  0  0  0  0  0  0  0  0  0  0
   45.4580   38.0800   30.2430 O   0  0  0  0  0  0  0  0  0  0  0  0
   42.4960   38.9870   30.9940 C   0  0  0  0  0  0  0  0  0  0  0  0
   44.0170   37.7090   32.1240 C   0  0  0  0  0  0  0  0  0  0  0  0
   43.7320   39.9770   34.1170 S   0  0  0  0  0  0  0  0  0  0  0  0
   44.2080   37.5180   30.5510 C   0  0  0  0  0  0  0  0  0  0  0  0
   42.6970   38.2120   32.2410 N   0  0  0  0  0  0  0  0  0  0  0  0
   43.0280   38.1390   29.8650 C   0  0  0  0  0  0  0  0  0  0  0  0
   43.3150   38.8440   28.6420 O   0  0  0  0  0  0  0  0  0  0  0  0
   44.6200   38.1090   33.8660 P   0  0  0  0  0  0  0  0  0  0  0  0
  4  8  1  0
  5  8  1  0
  5 11  1  0
  7  3  1  0
  7  5  1  0
  9 10  1  0
  9  7  1  0
  9  4  1  0
 11  2  2  0
 11  6  1  0
 11  1  1  0
M  END
$$$$

     RDKit          3D

  9  8  0  0  0  0  0  0  0  0999 V2000
   43.9520   38.5900   34.2620 N   0  0  0  0  0  0  0  0  0  0  0  0
   43.8210   39.8970   31.5790 O   0  0  0  0  0  0  0  0  0  0  0  0
   43.4170   36.5620   33.3530 O   0  0  0  0  0  0  0  0  0  0  0  0
   44.0820   38.0940   28.9770 C   0  0  0  0  0  0  0  0  0  0  0  0
   42.0740   37.9470   30.4610 N   0  0  0  0  0  0  0  0  0  0  0  0
   43.5100   37.5780   30.2860 C   0  0  0  0  0  0  0  0  0  0  0  0
   44.2220   38.4180   31.6690 S   0  0  0  0  0  0  0  0  0  0  0  0
   43.7400   37.7620   33.1900 C   0  0  0  0  0  0  0  0  0  0  0  0
   45.6660   38.1540   31.5090 O   0  0  0  0  0  0  0  0  0  0  0  0
  2  7  2  0
  6  4  1  0
  6  5  1  0
  6  7  1  0
  7  8  1  0
  8  3  2  0
  8  1  1  0
  9  7  2  0
M  END
$$$$

     RDKit          3D

  4  3  0  0  0  0  0  0  0  0999 V2000
   43.7450   36.7450   34.2350 N   0  0  0  0  0  0  0  0  0  0  0  0
   43.0550   36.8610   32.9820 C   0  0  0  0  0  0  0  0  0  0  0  0
   45.1150   37.0130   34.1610 O   0  0  0  0  0  0  0  0  0  0  0  0
   42.7230   37.8680   32.4030 O   0  0  0  0  0  0  0  0  0  0  0  0
  2  1  1  0
  3  1  1  0
  4  2  2  0
M  END
$$$$

     RDKit          3D

 12 12  0  0  0  0  0  0  0  0999 V2000
   37.0050   32.4400   31.1700 C   0  0  0  0  0  0  0  0  0  0  0  0
   41.0490   35.8070   32.4550 C   0  0  0  0  0  0  0  0  0  0  0  0
   34.3430   30.5890   29.8240 C   0  0  0  0  0  0  0  0  0  0  0  0
   32.6530   30.6230   31.9400 C   0  0  0  0  0  0  0  0  0  0  0  0
   40.0110   34.8210   31.9320 C   0  0  0  0  0  0  0  0  0  0  0  0
   35.8680   32.1540   30.3090 C   0  0  0  0  0  0  0  0  0  0  0  0
   39.4960   33.5710   32.7280 C   0  0  0  0  0  0  0  0  0  0  0  0
   32.9040   30.7490   30.3070 C   0  0  0  0  0  0  0  0  0  0  0  0
   42.0720   35.1130   33.1790 N   0  0  0  0  0  0  0  0  0  0  0  0
   34.8890   31.5800   31.0720 C   0  0  0  0  0  0  0  0  0  0  0  0
   38.2570   32.9490   32.4770 C   0  0  0  0  0  0  0  0  0  0  0  0
   35.3750   31.9910   32.1200 C   0  0  0  0  0  0  0  0  0  0  0  0
  1 12  1  0
  1 11  1  0
  2  9  1  0
  3  8  1  0
  5  2  1  0
  5  7  1  0
  6 10  1  0
  6  1  1  0
  8  4  1  0
 10  3  1  0
 10 12  1  0
 11  7  1  0
M  END
$$$$

     RDKit          3D

 11 11  0  0  0  0  0  0  0  0999 V2000
   44.4370   39.0630   32.0680 C   0  0  0  0  0  0  0  0  0  0  0  0
   44.9720   41.2250   32.8950 C   0  0  0  0  0  0  0  0  0  0  0  0
   44.8010   39.5210   30.9130 O   0  0  0  0  0  0  0  0  0  0  0  0
   44.3630   37.5790   34.7630 C   0  0  0  0  0  0  0  0  0  0  0  0
   44.3890   37.6390   32.1200 N   0  0  0  0  0  0  0  0  0  0  0  0
   44.2650   39.9520   33.1390 C   0  0  0  0  0  0  0  0  0  0  0  0
   43.2960   38.5960   34.8470 N   0  0  0  0  0  0  0  0  0  0  0  0
   43.0190   40.6620   34.7350 O   0  0  0  0  0  0  0  0  0  0  0  0
   43.5420   39.7060   34.2780 C   0  0  0  0  0  0  0  0  0  0  0  0
   44.3990   36.8890   33.3430 C   0  0  0  0  0  0  0  0  0  0  0  0
   44.4470   37.0440   30.7810 C   0  0  0  0  0  0  0  0  0  0  0  0
  1  5  1  0
  1  6  1  0
  3  1  2  0
  4  7  1  0
  5 10  1  0
  6  2  1  0
  6  9  1  0
  9  8  2  0
  9  7  1  0
 10  4  1  0
 11  5  1  0
M  END
$$$$

     RDKit          3D

 11 11  0  0  0  0  0  0  0  0999 V2000
   43.9680   40.8910   33.1760 C   0  0  0  0  0  0  0  0  0  0  0  0
   43.4050   37.3380   29.2840 S   0  0  0  0  0  0  0  0  0  0  0  0
   44.3560   36.3710   32.0880 O   0  0  0  0  0  0  0  0  0  0  0  0
   44.4460   38.0710   30.4000 C   0  0  0  0  0  0  0  0  0  0  0  0
   43.8670   40.5730   34.4880 N   0  0  0  0  0  0  0  0  0  0  0  0
   44.2130   38.2930   34.0720 N   0  0  0  0  0  0  0  0  0  0  0  0
   44.1100   39.8740   32.2080 C   0  0  0  0  0  0  0  0  0  0  0  0
   44.4870   37.5630   31.8000 C   0  0  0  0  0  0  0  0  0  0  0  0
   43.9180   39.3030   34.8750 C   0  0  0  0  0  0  0  0  0  0  0  0
   44.2710   38.5750   32.7260 C   0  0  0  0  0  0  0  0  0  0  0  0
   43.2210   38.6760   28.1760 C   0  0  0  0  0  0  0  0  0  0  0  0
  1  5  1  0
  2  4  1  0
  4  8  1  0
  5  9  2  0
  6  9  1  0
  7 10  1  0
  7  1  2  0
  8  3  2  0
  8 10  1  0
 10  6  2  0
 11  2  1  0
M  END
$$$$

     RDKit          3D

 10  9  0  0  0  0  0  0  0  0999 V2000
   42.6040   38.9520   33.9760 N   0  0  0  0  0  0  0  0  0  0  0  0
   42.9370   38.0100   32.8970 C   0  0  0  0  0  0  0  0  0  0  0  0
   43.5110   38.8750   31.7740 C   0  0  0  0  0  0  0  0  0  0  0  0
   44.8260   39.3150   32.2610 C   0  0  0  0  0  0  0  0  0  0  0  0
   44.2190   36.8270   29.1130 C   0  0  0  0  0  0  0  0  0  0  0  0
   44.2960   36.3570   32.3860 O   0  0  0  0  0  0  0  0  0  0  0  0
   43.6580   36.8520   33.5650 C   0  0  0  0  0  0  0  0  0  0  0  0
   45.7250   38.2320   30.3430 S   0  0  0  0  0  0  0  0  0  0  0  0
   43.9340   38.3200   30.4280 C   0  0  0  0  0  0  0  0  0  0  0  0
   43.1810   37.2500   30.0460 C   0  0  0  0  0  0  0  0  0  0  0  0
  2  7  1  0
  2  1  1  0
  3  4  1  0
  3  2  1  0
  5 10  1  0
  6  7  1  0
  9  8  1  0
  9  3  1  0
 10  9  1  0
M  END
$$$$

     RDKit          3D

 23 24  0  0  0  0  0  0  0  0999 V2000
   33.4650   35.4350   33.2360 S   0  0  0  0  0  0  0  0  0  0  0  0
   43.2590   39.1420   30.2570 C   0  0  0  0  0  0  0  0  0  0  0  0
   35.9690   35.0420   33.7320 C   0  0  0  0  0  0  0  0  0  0  0  0
   36.7740   34.5770   33.1240 C   0  0  0  0  0  0  0  0  0  0  0  0
   38.1160   34.4580   33.1130 C   0  0  0  0  0  0  0  0  0  0  0  0
   44.5800   36.9300   32.5530 C   0  0  0  0  0  0  0  0  0  0  0  0
   41.3420   37.0820   32.1100 C   0  0  0  0  0  0  0  0  0  0  0  0
   32.4600   34.0240   35.0410 O   0  0  0  0  0  0  0  0  0  0  0  0
   44.7030   39.2420   29.9870 O   0  0  0  0  0  0  0  0  0  0  0  0
   32.3410   34.4860   33.9450 C   0  0  0  0  0  0  0  0  0  0  0  0
   41.3720   35.8810   32.8850 C   0  0  0  0  0  0  0  0  0  0  0  0
   39.5740   35.8330   34.1800 O   0  0  0  0  0  0  0  0  0  0  0  0
   38.9910   35.2710   33.0410 C   0  0  0  0  0  0  0  0  0  0  0  0
   31.0110   34.7020   33.3000 N   0  0  0  0  0  0  0  0  0  0  0  0
   34.8140   35.8080   34.2280 C   0  0  0  0  0  0  0  0  0  0  0  0
   38.0610   33.7040   31.5930 O   0  0  0  0  0  0  0  0  0  0  0  0
   43.4400   37.8130   32.3650 O   0  0  0  0  0  0  0  0  0  0  0  0
   39.5110   34.5190   31.7500 C   0  0  0  0  0  0  0  0  0  0  0  0
   42.2420   39.2190   29.0080 C   0  0  0  0  0  0  0  0  0  0  0  0
   40.8210   38.3060   29.4950 S   0  0  0  0  0  0  0  0  0  0  0  0
   42.9080   37.8510   30.9380 C   0  0  0  0  0  0  0  0  0  0  0  0
   40.6830   35.2390   31.9240 C   0  0  0  0  0  0  0  0  0  0  0  0
   41.5320   37.0720   30.6810 C   0  0  0  0  0  0  0  0  0  0  0  0
  1 10  1  0
  1 15  1  0
  2  9  1  0
  2 21  1  0
  3 15  1  0
  4  3  1  0
  5  4  1  0
  7 11  1  0
 10  8  2  0
 13  5  1  0
 13 12  1  0
 14 10  1  0
 16 18  1  0
 16  5  1  0
 17  6  1  0
 18 22  1  0
 18 13  1  0
 19 20  1  0
 19  2  1  0
 20 23  1  0
 21 17  1  0
 22 11  1  0
 23 21  1  0
 23  7  1  0
M  END
$$$$

     RDKit          3D

 25 27  0  0  0  0  0  0  0  0999 V2000
   42.9610   40.0250   33.6950 C   0  0  0  0  0  0  0  0  0  0  0  0
   41.7270   37.8450   28.1100 N   0  0  0  0  0  0  0  0  0  0  0  0
   43.5130   38.8810   31.8270 N   0  0  0  0  0  0  0  0  0  0  0  0
   43.5750   37.7770   33.9450 C   0  0  0  0  0  0  0  0  0  0  0  0
   42.5950   39.1840   32.6650 C   0  0  0  0  0  0  0  0  0  0  0  0
   41.6230   36.9390   29.1360 C   0  0  0  0  0  0  0  0  0  0  0  0
   42.6050   38.7960   28.5370 C   0  0  0  0  0  0  0  0  0  0  0  0
   45.4530   38.8720   30.5950 C   0  0  0  0  0  0  0  0  0  0  0  0
   43.4500   38.2650   29.5460 C   0  0  0  0  0  0  0  0  0  0  0  0
   42.9880   40.0740   35.2320 N   0  0  0  0  0  0  0  0  0  0  0  0
   45.1250   39.1550   35.6490 C   0  0  0  0  0  0  0  0  0  0  0  0
   40.9490   35.7810   32.3900 C   0  0  0  0  0  0  0  0  0  0  0  0
   41.5330   36.8930   31.6180 O   0  0  0  0  0  0  0  0  0  0  0  0
   44.0190   39.2670   30.5650 C   0  0  0  0  0  0  0  0  0  0  0  0
   42.5820   36.6320   34.0310 N   0  0  0  0  0  0  0  0  0  0  0  0
   44.1170   40.1040   36.1880 C   0  0  0  0  0  0  0  0  0  0  0  0
   40.6480   36.0120   28.8020 N   0  0  0  0  0  0  0  0  0  0  0  0
   42.4310   37.2360   30.3110 C   0  0  0  0  0  0  0  0  0  0  0  0
   44.4240   37.8380   35.2770 C   0  0  0  0  0  0  0  0  0  0  0  0
   40.9910   37.4400   26.9580 C   0  0  0  0  0  0  0  0  0  0  0  0
   42.1280   35.6390   33.2460 C   0  0  0  0  0  0  0  0  0  0  0  0
   40.3370   36.2610   27.3320 N   0  0  0  0  0  0  0  0  0  0  0  0
   45.6720   37.6380   31.4780 C   0  0  0  0  0  0  0  0  0  0  0  0
   40.9680   38.2710   25.6630 C   0  0  0  0  0  0  0  0  0  0  0  0
   42.6700   39.8450   27.9350 O   0  0  0  0  0  0  0  0  0  0  0  0
  1 10  1  0
  2  7  1  0
  2  6  1  0
  3  5  1  0
  4 15  1  0
  4 19  1  0
  5  1  1  0
  8 23  1  0
  9  7  1  0
  9 18  1  0
  9 14  1  0
 10 16  1  0
 11 16  1  0
 12 21  1  0
 13 12  1  0
 14  8  1  0
 14  3  1  0
 17  6  2  0
 18  6  1  0
 18 13  1  0
 19 11  1  0
 20 22  2  0
 20  2  1  0
 21 15  1  0
 22 17  1  0
 24 20  1  0
 25  7  2  0
M  END
$$$$

     RDKit          3D

 13 12  0  0  0  0  0  0  0  0999 V2000
   45.7590   37.2260   31.1680 C   0  0  0  0  0  0  0  0  0  0  0  0
   45.2760   38.0830   32.2380 N   0  0  0  0  0  0  0  0  0  0  0  0
   45.9010   38.6650   29.3100 N   0  0  0  0  0  0  0  0  0  0  0  0
   42.9130   37.4200   33.8620 O   0  0  0  0  0  0  0  0  0  0  0  0
   46.7280   38.0350   30.3380 C   0  0  0  0  0  0  0  0  0  0  0  0
   42.8840   39.6220   33.7670 O   0  0  0  0  0  0  0  0  0  0  0  0
   45.3400   37.9710   28.4160 C   0  0  0  0  0  0  0  0  0  0  0  0
   43.2550   38.5140   33.3220 C   0  0  0  0  0  0  0  0  0  0  0  0
   44.2390   37.2360   28.6330 O   0  0  0  0  0  0  0  0  0  0  0  0
   43.9630   39.7610   31.1940 O   0  0  0  0  0  0  0  0  0  0  0  0
   45.3980   38.4380   27.0230 C   0  0  0  0  0  0  0  0  0  0  0  0
   45.6640   38.3110   33.6600 C   0  0  0  0  0  0  0  0  0  0  0  0
   43.9140   38.5070   31.9350 C   0  0  0  0  0  0  0  0  0  0  0  0
  1  2  1  0
  2 12  1  0
  3  5  1  0
  5  1  1  0
  7  9  2  0
  7  3  1  0
  8  6  2  0
  8  4  1  0
 11  7  1  0
 13 10  1  0
 13  2  1  0
 13  8  1  0
M  END
$$$$

     RDKit          3D

  9  9  0  0  0  0  0  0  0  0999 V2000
   45.9320   37.0730   31.3920 O   0  0  0  0  0  0  0  0  0  0  0  0
   44.5610   39.3920   33.3950 C   0  0  0  0  0  0  0  0  0  0  0  0
   44.2570   40.8040   33.7880 C   0  0  0  0  0  0  0  0  0  0  0  0
   44.8950   37.4940   31.9580 C   0  0  0  0  0  0  0  0  0  0  0  0
   43.8300   36.7920   32.8320 C   0  0  0  0  0  0  0  0  0  0  0  0
   42.8540   37.7390   33.4800 N   0  0  0  0  0  0  0  0  0  0  0  0
   43.5810   38.6820   34.2890 C   0  0  0  0  0  0  0  0  0  0  0  0
   44.7410   38.9890   31.9510 C   0  0  0  0  0  0  0  0  0  0  0  0
   45.0750   41.4480   32.9650 O   0  0  0  0  0  0  0  0  0  0  0  0
  1  4  2  0
  2  3  1  0
  2  7  1  0
  4  5  1  0
  5  6  1  0
  6  7  1  0
  8  4  1  0
  8  2  1  0
  9  3  1  0
M  END
$$$$

     RDKit          3D

 13 12  0  0  0  0  0  0  0  0999 V2000
   42.9980   38.6790   31.6260 C   0  0  0  0  0  0  0  0  0  0  0  0
   42.9700   35.7800   32.4580 O   0  0  0  0  0  0  0  0  0  0  0  0
   44.0130   37.6470   28.4280 O   0  0  0  0  0  0  0  0  0  0  0  0
   44.8420   40.1120   34.6460 O   0  0  0  0  0  0  0  0  0  0  0  0
   43.5740   38.1750   32.9770 C   0  0  0  0  0  0  0  0  0  0  0  0
   42.0550   38.8830   28.8810 C   0  0  0  0  0  0  0  0  0  0  0  0
   45.0720   38.3960   33.0380 C   0  0  0  0  0  0  0  0  0  0  0  0
   43.4140   36.6600   33.2450 C   0  0  0  0  0  0  0  0  0  0  0  0
   43.3640   37.7290   30.5600 N   0  0  0  0  0  0  0  0  0  0  0  0
   43.2230   38.0610   29.2500 C   0  0  0  0  0  0  0  0  0  0  0  0
   46.7240   39.0620   34.4510 O   0  0  0  0  0  0  0  0  0  0  0  0
   45.5460   39.2290   34.1920 C   0  0  0  0  0  0  0  0  0  0  0  0
   43.8780   36.3800   34.3610 O   0  0  0  0  0  0  0  0  0  0  0  0
  2  8  2  0
  3 10  2  0
  5  1  1  0
  5  7  1  0
  5  8  1  0
  6 10  1  0
  7 12  1  0
  8 13  1  0
  9  1  1  0
 10  9  1  0
 12 11  2  0
 12  4  1  0
M  END
$$$$
