
     RDKit          3D

 16 17  0  0  0  0  0  0  0  0999 V2000
   34.5690   42.0440   27.0990 C   0  0  0  0  0  0  0  0  0  0  0  0
   41.1910   43.3150   27.4040 S   0  0  0  0  0  0  0  0  0  0  0  0
   36.9140   40.7320   28.6140 N   0  0  0  0  0  0  0  0  0  0  0  0
   35.8050   41.4110   26.9030 C   0  0  0  0  0  0  0  0  0  0  0  0
   39.4540   41.0780   29.0170 C   0  0  0  0  0  0  0  0  0  0  0  0
   38.5690   41.1810   30.0830 O   0  0  0  0  0  0  0  0  0  0  0  0
   39.5750   42.9380   26.8910 C   0  0  0  0  0  0  0  0  0  0  0  0
   34.8470   40.1230   25.0980 C   0  0  0  0  0  0  0  0  0  0  0  0
   33.6170   40.2650   25.9060 C   0  0  0  0  0  0  0  0  0  0  0  0
   41.3370   42.8800   29.1250 C   0  0  0  0  0  0  0  0  0  0  0  0
   38.8650   41.8140   27.7750 N   0  0  0  0  0  0  0  0  0  0  0  0
   40.7740   41.6160   29.5040 C   0  0  0  0  0  0  0  0  0  0  0  0
   36.1520   40.8460   25.7010 C   0  0  0  0  0  0  0  0  0  0  0  0
   37.2770   41.6370   27.5980 C   0  0  0  0  0  0  0  0  0  0  0  0
   33.3390   41.4780   26.6270 C   0  0  0  0  0  0  0  0  0  0  0  0
   37.2450   41.1110   25.2750 O   0  0  0  0  0  0  0  0  0  0  0  0
  2 10  1  0
  4  1  1  0
  4 14  1  0
  5 12  1  0
  5  6  1  0
  7  2  1  0
  7 11  1  0
  8 13  1  0
  8  9  1  0
  9 15  1  0
 10 12  1  0
 11  5  1  0
 13  4  1  0
 14 11  1  0
 14  3  1  0
 15  1  1  0
 16 13  2  0
M  END
$$$$

     RDKit          3D

  9  8  0  0  0  0  0  0  0  0999 V2000
   37.5420   42.1290   26.3480 C   0  0  0  0  0  0  0  0  0  0  0  0
   38.4240   41.8470   28.5760 C   0  0  0  0  0  0  0  0  0  0  0  0
   37.1300   41.0300   25.6650 O   0  0  0  0  0  0  0  0  0  0  0  0
   38.4450   42.4950   29.9930 C   0  0  0  0  0  0  0  0  0  0  0  0
   38.4560   40.4300   28.8090 O   0  0  0  0  0  0  0  0  0  0  0  0
   35.9430   41.2350   27.9370 N   0  0  0  0  0  0  0  0  0  0  0  0
   37.1010   42.1960   27.7860 C   0  0  0  0  0  0  0  0  0  0  0  0
   38.7510   43.9250   30.0430 O   0  0  0  0  0  0  0  0  0  0  0  0
   38.1580   43.0750   25.7730 O   0  0  0  0  0  0  0  0  0  0  0  0
  1  7  1  0
  2  5  1  0
  2  4  1  0
  3  1  2  0
  4  8  1  0
  7  6  1  0
  7  2  1  0
  9  1  1  0
M  END
$$$$

     RDKit          3D

 19 19  0  0  0  0  0  0  0  0999 V2000
   39.3870   40.7450   28.6980 C   0  0  0  0  0  0  0  0  0  0  0  0
   37.3910   42.3240   28.0130 C   0  0  0  0  0  0  0  0  0  0  0  0
   36.1720   42.7970   23.8930 C   0  0  0  0  0  0  0  0  0  0  0  0
   36.1710   39.4360   25.9620 O   0  0  0  0  0  0  0  0  0  0  0  0
   39.8300   41.8280   29.6330 C   0  0  0  0  0  0  0  0  0  0  0  0
   35.7750   42.2320   26.2480 N   0  0  0  0  0  0  0  0  0  0  0  0
   38.0540   38.7130   29.6220 C   0  0  0  0  0  0  0  0  0  0  0  0
   39.4340   43.2740   29.8800 C   0  0  0  0  0  0  0  0  0  0  0  0
   37.6800   41.5600   29.2540 N   0  0  0  0  0  0  0  0  0  0  0  0
   34.4090   44.1210   26.0720 C   0  0  0  0  0  0  0  0  0  0  0  0
   37.8610   43.3520   27.5640 O   0  0  0  0  0  0  0  0  0  0  0  0
   35.6030   41.6750   23.3110 O   0  0  0  0  0  0  0  0  0  0  0  0
   36.6050   40.1120   26.8600 C   0  0  0  0  0  0  0  0  0  0  0  0
   37.3670   39.7980   27.7890 N   0  0  0  0  0  0  0  0  0  0  0  0
   34.6760   43.0990   26.6390 C   0  0  0  0  0  0  0  0  0  0  0  0
   38.1010   40.1790   28.8930 C   0  0  0  0  0  0  0  0  0  0  0  0
   41.3070   42.0310   29.1750 C   0  0  0  0  0  0  0  0  0  0  0  0
   36.3110   41.3680   27.3510 C   0  0  0  0  0  0  0  0  0  0  0  0
   36.6240   42.2970   25.3340 C   0  0  0  0  0  0  0  0  0  0  0  0
  1 16  1  0
  1  5  1  0
  2  9  1  0
  3 19  1  0
  4 13  2  0
  5  8  1  0
  6 15  1  0
 10 15  2  0
 11  2  2  0
 12  3  1  0
 13 18  1  0
 13 14  1  0
 14 16  1  0
 16  9  1  0
 16  7  1  0
 17  5  1  0
 18  6  1  0
 18  2  1  0
 19  6  1  0
M  END
$$$$

     RDKit          3D

 11 10  0  0  0  0  0  0  0  0999 V2000
   37.6770   42.7130   28.5670 O   0  0  0  0  0  0  0  0  0  0  0  0
   34.8470   44.4730   26.1360 O   0  0  0  0  0  0  0  0  0  0  0  0
   38.9320   40.0780   28.9640 O   0  0  0  0  0  0  0  0  0  0  0  0
   33.8260   42.4750   26.3830 O   0  0  0  0  0  0  0  0  0  0  0  0
   36.1870   41.5070   27.0440 C   0  0  0  0  0  0  0  0  0  0  0  0
   34.7570   43.2210   26.1270 C   0  0  0  0  0  0  0  0  0  0  0  0
   37.5610   43.0390   25.8190 O   0  0  0  0  0  0  0  0  0  0  0  0
   37.5520   41.5440   27.7580 C   0  0  0  0  0  0  0  0  0  0  0  0
   35.7410   40.2260   26.5660 O   0  0  0  0  0  0  0  0  0  0  0  0
   37.5740   40.4520   28.8160 C   0  0  0  0  0  0  0  0  0  0  0  0
   36.1410   42.5330   25.9020 C   0  0  0  0  0  0  0  0  0  0  0  0
  5  9  1  0
  5  8  1  0
  6  2  2  0
  6  4  1  0
  8  1  1  0
  8 10  1  0
 10  3  1  0
 11  7  1  0
 11  6  1  0
 11  5  1  0
M  END
$$$$

     RDKit          3D

 14 13  0  0  0  0  0  0  0  0999 V2000
   38.3120   41.8200   24.7170 O   0  0  0  0  0  0  0  0  0  0  0  0
   35.5120   41.3090   27.0800 C   0  0  0  0  0  0  0  0  0  0  0  0
   38.9520   40.6860   29.0920 C   0  0  0  0  0  0  0  0  0  0  0  0
   40.3790   43.0420   23.9730 C   0  0  0  0  0  0  0  0  0  0  0  0
   40.1270   42.9750   25.4490 C   0  0  0  0  0  0  0  0  0  0  0  0
   36.5120   41.0850   28.1400 C   0  0  0  0  0  0  0  0  0  0  0  0
   38.6930   42.5980   25.7220 C   0  0  0  0  0  0  0  0  0  0  0  0
   38.2630   41.7920   29.2220 N   0  0  0  0  0  0  0  0  0  0  0  0
   38.5700   41.7790   27.0790 C   0  0  0  0  0  0  0  0  0  0  0  0
   35.9000   40.7960   25.6760 C   0  0  0  0  0  0  0  0  0  0  0  0
   34.9170   42.5990   26.8710 N   0  0  0  0  0  0  0  0  0  0  0  0
   37.8310   42.1610   28.0030 C   0  0  0  0  0  0  0  0  0  0  0  0
   36.1520   41.6760   24.8770 O   0  0  0  0  0  0  0  0  0  0  0  0
   35.8470   39.6310   25.5480 O   0  0  0  0  0  0  0  0  0  0  0  0
  2 11  1  0
  2  6  1  0
  3  8  1  0
  4  5  1  0
  5  7  1  0
  7  1  1  0
  7  9  1  0
 10  2  1  0
 12  9  1  0
 12  6  1  0
 12  8  1  0
 13 10  2  0
 14 10  1  0
M  END
$$$$

     RDKit          3D

 14 15  0  0  0  0  0  0  0  0999 V2000
   36.0800   40.6840   26.0010 C   0  0  0  0  0  0  0  0  0  0  0  0
   38.1230   40.7060   29.1560 C   0  0  0  0  0  0  0  0  0  0  0  0
   37.5800   42.2950   28.9170 N   0  0  0  0  0  0  0  0  0  0  0  0
   35.8510   39.5820   25.5120 O   0  0  0  0  0  0  0  0  0  0  0  0
   33.1500   43.2980   25.2270 O   0  0  0  0  0  0  0  0  0  0  0  0
   34.2970   43.9330   25.2680 C   0  0  0  0  0  0  0  0  0  0  0  0
   38.7450   42.6050   26.8390 C   0  0  0  0  0  0  0  0  0  0  0  0
   35.5830   41.8670   25.2440 C   0  0  0  0  0  0  0  0  0  0  0  0
   36.3230   43.3420   26.9890 C   0  0  0  0  0  0  0  0  0  0  0  0
   39.5570   40.0560   28.7680 N   0  0  0  0  0  0  0  0  0  0  0  0
   37.0670   39.9800   28.2970 C   0  0  0  0  0  0  0  0  0  0  0  0
   36.7670   40.9190   27.2050 C   0  0  0  0  0  0  0  0  0  0  0  0
   37.3800   42.3110   27.4830 C   0  0  0  0  0  0  0  0  0  0  0  0
   35.4090   42.9760   25.8430 C   0  0  0  0  0  0  0  0  0  0  0  0
  1 12  1  0
  2 10  1  0
  3  2  1  0
  4  1  2  0
  5  6  1  0
  6 14  1  0
  8 14  1  0
  8  1  1  0
  9 13  1  0
 11  2  1  0
 12 13  1  0
 12 11  1  0
 13  7  1  0
 13  3  1  0
 14  9  2  0
M  END
$$$$

     RDKit          3D

 20 22  0  0  0  0  0  0  0  0999 V2000
   34.5350   39.7010   25.3970 N   0  0  0  0  0  0  0  0  0  0  0  0
   35.4180   42.7610   26.0520 N   0  0  0  0  0  0  0  0  0  0  0  0
   35.2860   40.5910   26.0200 C   0  0  0  0  0  0  0  0  0  0  0  0
   36.8080   42.2040   25.8320 C   0  0  0  0  0  0  0  0  0  0  0  0
   33.0740   43.2400   26.3280 C   0  0  0  0  0  0  0  0  0  0  0  0
   37.4570   43.9730   26.9700 C   0  0  0  0  0  0  0  0  0  0  0  0
   38.4460   43.0020   27.4980 C   0  0  0  0  0  0  0  0  0  0  0  0
   34.5080   43.8920   26.3410 C   0  0  0  0  0  0  0  0  0  0  0  0
   37.9440   47.1310   27.5390 C   0  0  0  0  0  0  0  0  0  0  0  0
   38.1090   45.5440   27.5930 C   0  0  0  0  0  0  0  0  0  0  0  0
   36.4850   41.0060   27.9610 O   0  0  0  0  0  0  0  0  0  0  0  0
   38.1580   40.0990   29.3790 C   0  0  0  0  0  0  0  0  0  0  0  0
   34.7690   41.7610   25.6190 C   0  0  0  0  0  0  0  0  0  0  0  0
   33.3670   40.3740   25.0180 C   0  0  0  0  0  0  0  0  0  0  0  0
   36.7130   40.8290   26.4390 C   0  0  0  0  0  0  0  0  0  0  0  0
   33.4760   41.8320   25.6760 C   0  0  0  0  0  0  0  0  0  0  0  0
   37.5740   41.0560   28.6410 C   0  0  0  0  0  0  0  0  0  0  0  0
   38.8750   45.5130   28.9420 C   0  0  0  0  0  0  0  0  0  0  0  0
   38.1270   42.3400   28.5550 N   0  0  0  0  0  0  0  0  0  0  0  0
   39.7310   42.8600   26.8590 C   0  0  0  0  0  0  0  0  0  0  0  0
  2  4  1  0
  2  8  1  0
  3  1  1  0
  3 15  1  0
  4 15  1  0
  5  8  1  0
  6  7  1  0
  6 10  1  0
  7 20  1  0
  7 19  1  0
  9 10  1  0
 10 18  1  0
 11 17  1  0
 13 16  1  0
 13  3  1  0
 13  2  1  0
 14  1  1  0
 14 16  1  0
 15 11  1  0
 16  5  1  0
 17 12  2  0
 19 17  1  0
M  END
$$$$

     RDKit          3D

 22 24  0  0  0  0  0  0  0  0999 V2000
   32.3810   41.3410   25.0190 C   0  0  0  0  0  0  0  0  0  0  0  0
   34.4820   40.8900   25.8490 C   0  0  0  0  0  0  0  0  0  0  0  0
   35.6030   40.5670   26.5900 C   0  0  0  0  0  0  0  0  0  0  0  0
   38.2140   41.6290   27.4260 C   0  0  0  0  0  0  0  0  0  0  0  0
   39.0110   42.0370   25.4660 C   0  0  0  0  0  0  0  0  0  0  0  0
   38.2380   43.4910   25.8230 C   0  0  0  0  0  0  0  0  0  0  0  0
   35.8430   41.5750   27.5850 N   0  0  0  0  0  0  0  0  0  0  0  0
   38.8190   39.4090   30.0240 N   0  0  0  0  0  0  0  0  0  0  0  0
   38.2970   38.3820   29.4610 C   0  0  0  0  0  0  0  0  0  0  0  0
   38.9530   40.9220   29.7270 C   0  0  0  0  0  0  0  0  0  0  0  0
   33.5510   41.6860   26.1190 C   0  0  0  0  0  0  0  0  0  0  0  0
   34.6090   40.6050   24.5650 C   0  0  0  0  0  0  0  0  0  0  0  0
   31.7190   42.4140   25.2310 O   0  0  0  0  0  0  0  0  0  0  0  0
   36.9030   41.8270   28.5560 C   0  0  0  0  0  0  0  0  0  0  0  0
   38.1740   42.5080   26.3700 C   0  0  0  0  0  0  0  0  0  0  0  0
   33.5340   43.1560   26.5510 C   0  0  0  0  0  0  0  0  0  0  0  0
   33.2030   39.2710   23.7840 O   0  0  0  0  0  0  0  0  0  0  0  0
   33.1680   40.3680   24.1260 C   0  0  0  0  0  0  0  0  0  0  0  0
   37.3170   39.3200   28.7340 C   0  0  0  0  0  0  0  0  0  0  0  0
   37.8780   40.7760   28.6640 C   0  0  0  0  0  0  0  0  0  0  0  0
   37.1410   43.1470   29.0490 O   0  0  0  0  0  0  0  0  0  0  0  0
   36.2230   39.8310   25.9250 O   0  0  0  0  0  0  0  0  0  0  0  0
  1 13  2  0
  1 11  1  0
  2 11  1  0
  2  3  1  0
  3  7  1  0
  4 15  1  0
  4 14  1  0
  4 20  1  0
  5 15  1  0
  6 15  2  0
  7 14  1  0
  9  8  1  0
 10  8  1  0
 11 16  1  0
 12  2  1  0
 14 20  1  0
 14 21  1  0
 17 18  2  0
 18 12  1  0
 18  1  1  0
 19  9  1  0
 20 19  1  0
 20 10  1  0
 22  3  2  0
M  END
$$$$

     RDKit          3D

 23 25  0  0  0  0  0  0  0  0999 V2000
   38.5280   45.6720   29.4910 C   0  0  0  0  0  0  0  0  0  0  0  0
   34.4630   43.9510   26.7390 N   0  0  0  0  0  0  0  0  0  0  0  0
   37.7400   41.5280   28.2610 C   0  0  0  0  0  0  0  0  0  0  0  0
   32.8780   43.3350   25.0560 C   0  0  0  0  0  0  0  0  0  0  0  0
   39.0480   43.3980   29.3800 C   0  0  0  0  0  0  0  0  0  0  0  0
   34.4860   41.6830   25.9090 C   0  0  0  0  0  0  0  0  0  0  0  0
   36.0340   40.1560   26.6360 N   0  0  0  0  0  0  0  0  0  0  0  0
   38.9550   42.1020   29.0110 C   0  0  0  0  0  0  0  0  0  0  0  0
   38.0560   39.4270   29.5940 N   0  0  0  0  0  0  0  0  0  0  0  0
   36.7650   39.6290   27.5770 N   0  0  0  0  0  0  0  0  0  0  0  0
   39.5610   45.9070   30.4570 C   0  0  0  0  0  0  0  0  0  0  0  0
   39.7620   47.1790   32.5640 N   0  0  0  0  0  0  0  0  0  0  0  0
   36.8100   42.1940   27.3010 C   0  0  0  0  0  0  0  0  0  0  0  0
   37.5350   40.1950   28.5040 C   0  0  0  0  0  0  0  0  0  0  0  0
   40.1340   41.5050   29.3830 N   0  0  0  0  0  0  0  0  0  0  0  0
   35.8480   41.4580   26.5770 C   0  0  0  0  0  0  0  0  0  0  0  0
   38.4310   47.8910   30.5050 O   0  0  0  0  0  0  0  0  0  0  0  0
   39.6850   47.2610   31.0580 C   0  0  0  0  0  0  0  0  0  0  0  0
   34.3150   43.1450   25.5400 C   0  0  0  0  0  0  0  0  0  0  0  0
   38.2080   44.4700   29.0450 C   0  0  0  0  0  0  0  0  0  0  0  0
   40.2220   43.5720   30.1960 C   0  0  0  0  0  0  0  0  0  0  0  0
   40.4750   44.8810   30.7540 C   0  0  0  0  0  0  0  0  0  0  0  0
   40.8880   42.3710   30.1260 C   0  0  0  0  0  0  0  0  0  0  0  0
  1 11  1  0
  3 14  1  0
  3  8  1  0
  5 21  1  0
  6 16  1  0
  7 10  1  0
  8  5  2  0
  8 15  1  0
 10 14  2  0
 11 22  2  0
 11 18  1  0
 13  3  2  0
 14  9  1  0
 15 23  2  0
 16  7  2  0
 16 13  1  0
 18 17  1  0
 18 12  1  0
 19  4  1  0
 19  6  1  0
 19  2  1  0
 20  5  1  0
 20  1  2  0
 21 23  1  0
 21 22  1  0
M  END
$$$$

     RDKit          3D

 15 15  0  0  0  0  0  0  0  0999 V2000
   32.9930   41.7040   25.8130 C   0  0  0  0  0  0  0  0  0  0  0  0
   39.8640   42.9660   27.3310 O   0  0  0  0  0  0  0  0  0  0  0  0
   38.4330   41.4460   28.4980 C   0  0  0  0  0  0  0  0  0  0  0  0
   40.8900   41.6660   28.7750 N   0  0  0  0  0  0  0  0  0  0  0  0
   34.9420   41.3110   26.8440 C   0  0  0  0  0  0  0  0  0  0  0  0
   36.4890   39.5400   26.5160 O   0  0  0  0  0  0  0  0  0  0  0  0
   39.7710   42.0830   28.1860 C   0  0  0  0  0  0  0  0  0  0  0  0
   34.3080   43.7450   26.1400 C   0  0  0  0  0  0  0  0  0  0  0  0
   34.1920   40.8440   25.7390 O   0  0  0  0  0  0  0  0  0  0  0  0
   36.0300   42.6650   25.3010 O   0  0  0  0  0  0  0  0  0  0  0  0
   33.1740   43.1930   25.4740 C   0  0  0  0  0  0  0  0  0  0  0  0
   35.3460   42.7390   26.4720 C   0  0  0  0  0  0  0  0  0  0  0  0
   38.1780   41.0320   29.5770 N   0  0  0  0  0  0  0  0  0  0  0  0
   37.4210   41.3450   27.6180 N   0  0  0  0  0  0  0  0  0  0  0  0
   36.3150   40.6250   27.0410 C   0  0  0  0  0  0  0  0  0  0  0  0
  2  7  2  0
  3 13  2  0
  5 15  1  0
  6 15  2  0
  7  3  1  0
  7  4  1  0
  8 12  1  0
  9  1  1  0
  9  5  1  0
 11  1  1  0
 11  8  1  0
 12 10  1  0
 12  5  1  0
 14  3  1  0
 15 14  1  0
M  END
$$$$

     RDKit          3D

 14 15  0  0  0  0  0  0  0  0999 V2000
   38.0740   39.6240   28.9940 C   0  0  0  0  0  0  0  0  0  0  0  0
   38.4330   42.0360   29.3010 N   0  0  0  0  0  0  0  0  0  0  0  0
   37.0880   42.9760   25.7790 O   0  0  0  0  0  0  0  0  0  0  0  0
   36.6650   40.1370   28.9450 C   0  0  0  0  0  0  0  0  0  0  0  0
   36.2080   39.5890   26.2120 O   0  0  0  0  0  0  0  0  0  0  0  0
   35.0090   42.0690   24.5110 N   0  0  0  0  0  0  0  0  0  0  0  0
   33.4470   43.6880   25.3510 C   0  0  0  0  0  0  0  0  0  0  0  0
   35.9400   40.6240   26.6370 C   0  0  0  0  0  0  0  0  0  0  0  0
   35.1180   41.6580   25.8590 C   0  0  0  0  0  0  0  0  0  0  0  0
   39.0940   40.6910   29.0560 C   0  0  0  0  0  0  0  0  0  0  0  0
   35.8360   42.9090   25.3650 C   0  0  0  0  0  0  0  0  0  0  0  0
   36.4010   41.0800   27.8700 N   0  0  0  0  0  0  0  0  0  0  0  0
   34.8440   44.0810   25.7880 C   0  0  0  0  0  0  0  0  0  0  0  0
   33.9380   44.6640   24.5730 C   0  0  0  0  0  0  0  0  0  0  0  0
  1 10  1  0
  4  1  1  0
  5  8  2  0
  6 11  1  0
  6  9  1  0
  7 13  1  0
  8 12  1  0
  9  8  1  0
 10  2  1  0
 11  3  1  0
 11 13  1  0
 11  9  1  0
 12  4  1  0
 14  7  1  0
 14 13  1  0
M  END
$$$$

     RDKit          3D

 12 12  0  0  0  0  0  0  0  0999 V2000
   35.6450   40.6600   26.4410 C   0  0  0  0  0  0  0  0  0  0  0  0
   38.5290   41.4730   24.0540 O   0  0  0  0  0  0  0  0  0  0  0  0
   35.6650   41.3970   27.7180 O   0  0  0  0  0  0  0  0  0  0  0  0
   37.1820   42.2730   25.4220 C   0  0  0  0  0  0  0  0  0  0  0  0
   36.1660   39.2940   26.5370 O   0  0  0  0  0  0  0  0  0  0  0  0
   37.2120   40.0600   28.9100 O   0  0  0  0  0  0  0  0  0  0  0  0
   37.8310   42.6470   24.3070 C   0  0  0  0  0  0  0  0  0  0  0  0
   36.2970   41.2520   25.1480 C   0  0  0  0  0  0  0  0  0  0  0  0
   37.2670   42.9090   26.7470 C   0  0  0  0  0  0  0  0  0  0  0  0
   37.3260   44.1180   26.8890 O   0  0  0  0  0  0  0  0  0  0  0  0
   37.6630   41.0910   27.9900 C   0  0  0  0  0  0  0  0  0  0  0  0
   36.7530   42.2090   27.9590 C   0  0  0  0  0  0  0  0  0  0  0  0
  1  5  1  0
  1  3  1  0
  2  7  1  0
  3 12  1  0
  4  7  1  0
  4  9  1  0
  8  4  1  0
  8  1  1  0
  9 10  2  0
  9 12  1  0
 11  6  1  0
 12 11  1  0
M  END
$$$$

     RDKit          3D

 13 12  0  0  0  0  0  0  0  0999 V2000
   36.3590   43.0230   23.8190 C   0  0  0  0  0  0  0  0  0  0  0  0
   37.5410   41.6140   25.9690 C   0  0  0  0  0  0  0  0  0  0  0  0
   37.3660   43.2570   29.3000 O   0  0  0  0  0  0  0  0  0  0  0  0
   38.1320   42.6660   26.8030 C   0  0  0  0  0  0  0  0  0  0  0  0
   34.9440   42.2450   26.7240 O   0  0  0  0  0  0  0  0  0  0  0  0
   39.6750   43.0470   27.0440 O   0  0  0  0  0  0  0  0  0  0  0  0
   36.2410   43.1670   22.6450 O   0  0  0  0  0  0  0  0  0  0  0  0
   37.6460   41.9900   28.3770 P   0  0  0  0  0  0  0  0  0  0  0  0
   36.4500   42.3470   25.0630 O   0  0  0  0  0  0  0  0  0  0  0  0
   36.6830   41.0210   28.5290 O   0  0  0  0  0  0  0  0  0  0  0  0
   35.8170   41.3590   26.0340 S   0  0  0  0  0  0  0  0  0  0  0  0
   35.7880   39.8960   26.1220 O   0  0  0  0  0  0  0  0  0  0  0  0
   38.7200   40.9480   28.6790 O   0  0  0  0  0  0  0  0  0  0  0  0
  1  9  1  0
  2 11  1  0
  2  4  1  0
  4  6  1  0
  4  8  1  0
  7  1  1  0
  8 10  2  0
  8 13  1  0
  8  3  1  0
  9 11  1  0
 11 12  1  0
 11  5  1  0
M  END
$$$$

     RDKit          3D

  7  6  0  0  0  0  0  0  0  0999 V2000
   39.2770   41.7830   28.3350 C   0  0  0  0  0  0  0  0  0  0  0  0
   37.7280   40.4330   29.2380 O   0  0  0  0  0  0  0  0  0  0  0  0
   35.6820   40.8740   26.9790 O   0  0  0  0  0  0  0  0  0  0  0  0
   36.5980   41.7340   27.7180 C   0  0  0  0  0  0  0  0  0  0  0  0
   38.2280   41.1090   26.2420 O   0  0  0  0  0  0  0  0  0  0  0  0
   39.3090   43.0180   28.6760 O   0  0  0  0  0  0  0  0  0  0  0  0
   37.9200   41.2100   27.9360 C   0  0  0  0  0  0  0  0  0  0  0  0
  1  6  2  0
  3  4  1  0
  4  7  1  0
  5  7  1  0
  7  1  1  0
  7  2  1  0
M  END
$$$$

     RDKit          3D

 12 13  0  0  0  0  0  0  0  0999 V2000
   36.4140   40.8680   28.4520 C   0  0  0  0  0  0  0  0  0  0  0  0
   35.4990   41.3510   24.2820 S   0  0  0  0  0  0  0  0  0  0  0  0
   38.0870   41.6370   28.2980 C   0  0  0  0  0  0  0  0  0  0  0  0
   36.0580   40.5480   27.0050 C   0  0  0  0  0  0  0  0  0  0  0  0
   37.0590   43.9790   24.9960 C   0  0  0  0  0  0  0  0  0  0  0  0
   36.8250   42.3090   28.7900 C   0  0  0  0  0  0  0  0  0  0  0  0
   36.2500   41.6160   25.8740 C   0  0  0  0  0  0  0  0  0  0  0  0
   36.6650   43.0600   26.2100 C   0  0  0  0  0  0  0  0  0  0  0  0
   36.2360   45.1710   25.3480 C   0  0  0  0  0  0  0  0  0  0  0  0
   35.9750   43.9060   26.6580 N   0  0  0  0  0  0  0  0  0  0  0  0
   35.5980   45.6110   26.1960 O   0  0  0  0  0  0  0  0  0  0  0  0
   38.9290   40.8350   29.1030 N   0  0  0  0  0  0  0  0  0  0  0  0
  1  4  1  0
  1  6  1  0
  2  7  1  0
  3  1  1  0
  3  6  1  0
  3 12  1  0
  5  9  2  0
  5  8  1  0
  7  8  1  0
  7  4  2  3
  8 10  2  0
  9 11  1  0
 11 10  1  0
M  END
$$$$

     RDKit          3D

 16 15  0  0  0  0  0  0  0  0999 V2000
   39.8040   43.2860   28.7650 C   0  0  0  0  0  0  0  0  0  0  0  0
   37.4770   42.2700   28.8240 C   0  0  0  0  0  0  0  0  0  0  0  0
   37.6170   41.4870   24.9120 O   0  0  0  0  0  0  0  0  0  0  0  0
   35.4300   42.2620   25.4390 N   0  0  0  0  0  0  0  0  0  0  0  0
   34.3230   42.6830   25.8500 C   0  0  0  0  0  0  0  0  0  0  0  0
   39.0690   41.8000   26.9620 O   0  0  0  0  0  0  0  0  0  0  0  0
   37.9270   42.6520   30.1810 O   0  0  0  0  0  0  0  0  0  0  0  0
   40.6120   42.1670   29.0430 O   0  0  0  0  0  0  0  0  0  0  0  0
   35.7240   40.0920   25.7180 S   0  0  0  0  0  0  0  0  0  0  0  0
   36.5070   41.4780   25.9940 C   0  0  0  0  0  0  0  0  0  0  0  0
   35.1310   39.8180   24.3360 O   0  0  0  0  0  0  0  0  0  0  0  0
   36.4880   41.5230   27.7330 C   0  0  0  0  0  0  0  0  0  0  0  0
   33.8760   44.0670   25.5270 C   0  0  0  0  0  0  0  0  0  0  0  0
   33.4770   41.7790   26.7180 C   0  0  0  0  0  0  0  0  0  0  0  0
   35.7770   39.0880   26.7050 O   0  0  0  0  0  0  0  0  0  0  0  0
   38.6190   42.8340   27.8940 C   0  0  0  0  0  0  0  0  0  0  0  0
  1  8  1  0
  2  7  1  0
  4  5  1  0
  4 10  1  0
  5 14  1  0
  9 11  1  0
  9 10  1  0
  9 15  2  0
 10  3  1  0
 10 12  1  0
 12  2  2  3
 13  5  1  0
 16  6  1  0
 16  1  1  0
 16  2  1  0
M  END
$$$$

     RDKit          3D

 10 10  0  0  0  0  0  0  0  0999 V2000
   38.0720   39.0830   29.3000 C   0  0  0  0  0  0  0  0  0  0  0  0
   37.5110   43.0340   29.2250 C   0  0  0  0  0  0  0  0  0  0  0  0
   39.3540   42.3310   27.7030 C   0  0  0  0  0  0  0  0  0  0  0  0
   37.4270   43.2550   30.5940 O   0  0  0  0  0  0  0  0  0  0  0  0
   38.9410   43.4090   28.7090 C   0  0  0  0  0  0  0  0  0  0  0  0
   39.3910   40.9860   28.3330 N   0  0  0  0  0  0  0  0  0  0  0  0
   39.0130   44.8180   28.1150 C   0  0  0  0  0  0  0  0  0  0  0  0
   36.9410   41.6280   28.6710 S   0  0  0  0  0  0  0  0  0  0  0  0
   39.8640   43.3750   29.7810 O   0  0  0  0  0  0  0  0  0  0  0  0
   38.2250   40.4980   28.8280 C   0  0  0  0  0  0  0  0  0  0  0  0
  2  4  1  0
  3  6  1  0
  3  5  1  0
  5  7  1  0
  5  2  1  0
  5  9  1  0
  6 10  2  0
  8 10  1  0
  8  2  1  0
 10  1  1  0
M  END
$$$$

     RDKit          3D

 27 28  0  0  0  0  0  0  0  0999 V2000
   34.9050   41.5190   26.5330 C   0  0  0  0  0  0  0  0  0  0  0  0
   29.3460   37.8240   33.9370 C   0  0  0  0  0  0  0  0  0  0  0  0
   30.7430   36.1780   36.4530 C   0  0  0  0  0  0  0  0  0  0  0  0
   30.3120   35.8350   35.0220 C   0  0  0  0  0  0  0  0  0  0  0  0
   34.9790   40.6970   23.7960 C   0  0  0  0  0  0  0  0  0  0  0  0
   34.4680   40.1960   24.8810 C   0  0  0  0  0  0  0  0  0  0  0  0
   34.1890   38.7760   23.3270 C   0  0  0  0  0  0  0  0  0  0  0  0
   31.2300   37.5140   32.2050 S   0  0  0  0  0  0  0  0  0  0  0  0
   35.9550   42.2020   26.2310 C   0  0  0  0  0  0  0  0  0  0  0  0
   38.2130   39.4950   29.8220 C   0  0  0  0  0  0  0  0  0  0  0  0
   39.2530   40.4930   29.1380 C   0  0  0  0  0  0  0  0  0  0  0  0
   35.8650   42.1080   24.3980 S   0  0  0  0  0  0  0  0  0  0  0  0
   34.6320   38.3020   29.1570 C   0  0  0  0  0  0  0  0  0  0  0  0
   35.6260   39.4460   29.2010 C   0  0  0  0  0  0  0  0  0  0  0  0
   33.2200   38.2910   30.1780 S   0  0  0  0  0  0  0  0  0  0  0  0
   29.2540   39.0390   33.9520 O   0  0  0  0  0  0  0  0  0  0  0  0
   34.6130   39.9000   22.7600 O   0  0  0  0  0  0  0  0  0  0  0  0
   34.3440   40.4910   26.1450 C   0  0  0  0  0  0  0  0  0  0  0  0
   37.0720   38.9580   28.9420 C   0  0  0  0  0  0  0  0  0  0  0  0
   38.7820   41.1760   27.8390 C   0  0  0  0  0  0  0  0  0  0  0  0
   28.1060   37.0610   33.7780 O   0  0  0  0  0  0  0  0  0  0  0  0
   37.3310   41.7960   28.0490 C   0  0  0  0  0  0  0  0  0  0  0  0
   32.7770   37.0330   31.4030 C   0  0  0  0  0  0  0  0  0  0  0  0
   34.0830   38.8490   24.6180 C   0  0  0  0  0  0  0  0  0  0  0  0
   37.0420   42.7470   26.9230 C   0  0  0  0  0  0  0  0  0  0  0  0
   37.3530   38.1400   28.0510 O   0  0  0  0  0  0  0  0  0  0  0  0
   30.6440   37.0340   34.0410 C   0  0  0  0  0  0  0  0  0  0  0  0
  2 16  1  0
  2 27  1  0
  4  3  1  0
  5 17  1  0
  5 12  1  0
  5  6  1  0
  6 18  2  0
  7 24  1  0
  8 27  1  0
  9  1  1  0
  9 25  1  0
 11 10  1  0
 12  9  1  0
 13 14  1  0
 13 15  1  0
 15 23  1  0
 17  7  1  0
 18  1  1  0
 19 14  1  0
 19 10  1  0
 20 22  1  0
 20 11  1  0
 21  2  2  0
 23  8  1  0
 24  6  1  0
 25 22  1  0
 26 19  2  0
 27  4  1  0
M  END
$$$$

     RDKit          3D

 11 11  0  0  0  0  0  0  0  0999 V2000
   37.3530   40.6000   28.5210 O   0  0  0  0  0  0  0  0  0  0  0  0
   35.2330   40.0790   26.8680 C   0  0  0  0  0  0  0  0  0  0  0  0
   37.2310   43.0620   27.1900 C   0  0  0  0  0  0  0  0  0  0  0  0
   38.7090   42.6600   27.5450 C   0  0  0  0  0  0  0  0  0  0  0  0
   36.6290   40.5320   27.3110 C   0  0  0  0  0  0  0  0  0  0  0  0
   37.0290   44.2130   26.3620 O   0  0  0  0  0  0  0  0  0  0  0  0
   35.0430   42.6220   26.5690 N   0  0  0  0  0  0  0  0  0  0  0  0
   35.5310   39.7520   25.5350 O   0  0  0  0  0  0  0  0  0  0  0  0
   38.5470   41.3940   28.4280 C   0  0  0  0  0  0  0  0  0  0  0  0
   38.3270   42.1780   29.7070 O   0  0  0  0  0  0  0  0  0  0  0  0
   36.3280   41.9280   26.8470 C   0  0  0  0  0  0  0  0  0  0  0  0
  3  6  1  0
  3  4  1  0
  4  9  1  0
  5  2  1  0
  5  1  1  0
  8  2  1  0
  9  1  1  0
  9 10  1  0
 11  7  1  0
 11  3  1  0
 11  5  1  0
M  END
$$$$

     RDKit          3D

 12 11  0  0  0  0  0  0  0  0999 V2000
   39.5190   43.6060   27.5060 C   0  0  0  0  0  0  0  0  0  0  0  0
   37.4060   41.5490   28.8590 C   0  0  0  0  0  0  0  0  0  0  0  0
   36.2940   41.0290   28.0510 C   0  0  0  0  0  0  0  0  0  0  0  0
   35.6840   40.9900   26.8560 C   0  0  0  0  0  0  0  0  0  0  0  0
   36.1790   40.1010   25.9150 O   0  0  0  0  0  0  0  0  0  0  0  0
   38.2250   40.3350   29.3100 C   0  0  0  0  0  0  0  0  0  0  0  0
   40.3360   41.7220   29.3400 C   0  0  0  0  0  0  0  0  0  0  0  0
   34.3900   41.8170   26.7080 C   0  0  0  0  0  0  0  0  0  0  0  0
   40.0650   42.8590   28.3820 C   0  0  0  0  0  0  0  0  0  0  0  0
   39.5880   40.5730   28.8190 N   0  0  0  0  0  0  0  0  0  0  0  0
   33.6990   41.8430   25.3580 C   0  0  0  0  0  0  0  0  0  0  0  0
   32.3180   42.5360   25.5280 C   0  0  0  0  0  0  0  0  0  0  0  0
  1  9  3  0
  2  6  1  0
  3  2  1  0
  4  3  1  0
  5  4  1  0
  8  4  2  3
  9  7  1  0
 10  6  1  0
 10  7  1  0
 11 12  1  0
 11  8  1  0
M  END
$$$$
