
     RDKit          3D

 25 24  0  0  0  0  0  0  0  0999 V2000
   31.6130   36.9700   29.6130 C   0  0  0  0  0  0  0  0  0  0  0  0
   38.5640   39.9780   27.0140 C   0  0  0  0  0  0  0  0  0  0  0  0
   36.1640   39.2260   27.2520 C   0  0  0  0  0  0  0  0  0  0  0  0
   46.3490   39.4940   31.7520 O   0  0  0  0  0  0  0  0  0  0  0  0
   35.0980   38.6730   26.3240 C   0  0  0  0  0  0  0  0  0  0  0  0
   39.8090   39.1380   27.1700 C   0  0  0  0  0  0  0  0  0  0  0  0
   41.2330   36.9740   27.5910 C   0  0  0  0  0  0  0  0  0  0  0  0
   46.4180   36.7350   32.1350 O   0  0  0  0  0  0  0  0  0  0  0  0
   41.3220   37.6780   28.9990 C   0  0  0  0  0  0  0  0  0  0  0  0
   41.2490   34.4040   32.0400 C   0  0  0  0  0  0  0  0  0  0  0  0
   34.3920   37.4410   26.9080 C   0  0  0  0  0  0  0  0  0  0  0  0
   42.3760   35.9550   30.3040 C   0  0  0  0  0  0  0  0  0  0  0  0
   42.1730   35.4420   31.7110 N   0  0  0  0  0  0  0  0  0  0  0  0
   40.5540   39.2510   28.7710 S   0  0  0  0  0  0  0  0  0  0  0  0
   41.0710   36.6820   30.0830 C   0  0  0  0  0  0  0  0  0  0  0  0
   33.6510   37.6150   28.2130 C   0  0  0  0  0  0  0  0  0  0  0  0
   41.2200   35.6960   27.5010 O   0  0  0  0  0  0  0  0  0  0  0  0
   45.0640   38.9490   31.8960 C   0  0  0  0  0  0  0  0  0  0  0  0
   45.3580   36.6690   31.5900 C   0  0  0  0  0  0  0  0  0  0  0  0
   43.4640   36.6650   29.4010 C   0  0  0  0  0  0  0  0  0  0  0  0
   43.8850   37.8650   30.0240 O   0  0  0  0  0  0  0  0  0  0  0  0
   32.2270   37.0430   28.1950 C   0  0  0  0  0  0  0  0  0  0  0  0
   45.0500   37.8670   30.7900 C   0  0  0  0  0  0  0  0  0  0  0  0
   37.4710   39.3440   26.6400 C   0  0  0  0  0  0  0  0  0  0  0  0
   44.5410   35.3980   31.8090 C   0  0  0  0  0  0  0  0  0  0  0  0
  2  6  1  0
  4 18  1  0
  5 11  1  0
  5  3  1  0
  6 14  1  0
  9  7  1  0
  9 15  1  0
 11 16  1  0
 12 20  1  0
 12 13  1  0
 13 10  1  0
 14  9  1  0
 15 12  1  0
 17  7  2  0
 19 25  1  0
 19  8  2  0
 20 21  1  0
 21 23  1  0
 22 16  1  0
 22  1  1  0
 23 19  1  0
 23 18  1  0
 24  2  1  0
 24  3  1  0
M  END
$$$$

     RDKit          3D

 12 12  0  0  0  0  0  0  0  0999 V2000
   43.9590   40.5760   28.4560 O   0  0  0  0  0  0  0  0  0  0  0  0
   43.0970   36.7920   30.1740 C   0  0  0  0  0  0  0  0  0  0  0  0
   40.8220   36.1090   29.8870 O   0  0  0  0  0  0  0  0  0  0  0  0
   40.3150   38.9780   27.8990 O   0  0  0  0  0  0  0  0  0  0  0  0
   41.9790   36.5760   29.1760 C   0  0  0  0  0  0  0  0  0  0  0  0
   43.3050   38.2170   29.9790 O   0  0  0  0  0  0  0  0  0  0  0  0
   42.3700   38.7820   28.9900 C   0  0  0  0  0  0  0  0  0  0  0  0
   40.8280   36.4430   27.3240 O   0  0  0  0  0  0  0  0  0  0  0  0
   42.0670   37.7250   28.1010 C   0  0  0  0  0  0  0  0  0  0  0  0
   43.0590   39.9220   28.3280 C   0  0  0  0  0  0  0  0  0  0  0  0
   40.8510   37.7820   27.6800 C   0  0  0  0  0  0  0  0  0  0  0  0
   44.2420   35.9730   29.8400 O   0  0  0  0  0  0  0  0  0  0  0  0
  2 12  1  0
  5  3  1  0
  5  2  1  0
  6  2  1  0
  7 10  1  0
  7  6  1  0
  8 11  2  0
  9 11  1  0
  9  7  1  0
  9  5  1  0
 10  1  2  0
 11  4  1  0
M  END
$$$$

     RDKit          3D

  9  9  0  0  0  0  0  0  0  0999 V2000
   42.7080   37.0600   28.2750 C   0  0  0  0  0  0  0  0  0  0  0  0
   41.7180   36.2020   27.7620 O   0  0  0  0  0  0  0  0  0  0  0  0
   41.7360   40.6460   28.9010 O   0  0  0  0  0  0  0  0  0  0  0  0
   42.7020   38.3480   28.3780 C   0  0  0  0  0  0  0  0  0  0  0  0
   41.7400   38.9050   27.4490 O   0  0  0  0  0  0  0  0  0  0  0  0
   43.8290   36.2920   28.6270 O   0  0  0  0  0  0  0  0  0  0  0  0
   41.8930   37.8170   29.3940 C   0  0  0  0  0  0  0  0  0  0  0  0
   41.7870   40.2700   27.7110 C   0  0  0  0  0  0  0  0  0  0  0  0
   40.4950   38.1010   29.2320 O   0  0  0  0  0  0  0  0  0  0  0  0
  1  4  1  0
  1  6  1  0
  1  7  1  0
  2  1  1  0
  4  5  1  0
  4  7  1  0
  5  8  1  0
  7  9  1  0
  8  3  2  0
M  END
$$$$

     RDKit          3D

 11 10  0  0  0  0  0  0  0  0999 V2000
   42.0410   38.2940   27.6520 C   0  0  0  0  0  0  0  0  0  0  0  0
   42.6510   36.4780   30.2690 C   0  0  0  0  0  0  0  0  0  0  0  0
   42.2790   35.9420   31.5710 C   0  0  0  0  0  0  0  0  0  0  0  0
   41.8520   37.4440   26.7560 O   0  0  0  0  0  0  0  0  0  0  0  0
   43.6040   37.6430   30.5410 C   0  0  0  0  0  0  0  0  0  0  0  0
   41.3870   38.1500   28.9660 C   0  0  0  0  0  0  0  0  0  0  0  0
   41.0660   35.7750   28.6550 O   0  0  0  0  0  0  0  0  0  0  0  0
   41.9790   33.9980   31.5530 Br  0  0  0  0  0  0  0  0  0  0  0  0
   43.2240   38.9240   30.0710 O   0  0  0  0  0  0  0  0  0  0  0  0
   41.3870   36.8060   29.5260 C   0  0  0  0  0  0  0  0  0  0  0  0
   42.8680   39.2330   27.4400 O   0  0  0  0  0  0  0  0  0  0  0  0
  1  6  1  0
  2  5  1  0
  2  3  1  0
  4  1  2  0
  6 10  1  0
  8  3  1  0
  9  5  1  0
 10  7  1  0
 10  2  1  0
 11  1  1  0
M  END
$$$$

     RDKit          3D

 14 14  0  0  0  0  0  0  0  0999 V2000
   43.3540   38.0620   29.0180 C   0  0  0  0  0  0  0  0  0  0  0  0
   41.8820   39.3230   28.3980 C   0  0  0  0  0  0  0  0  0  0  0  0
   40.9270   33.9620   31.2750 C   0  0  0  0  0  0  0  0  0  0  0  0
   43.6280   40.3510   29.8580 C   0  0  0  0  0  0  0  0  0  0  0  0
   44.0650   38.9730   29.8960 O   0  0  0  0  0  0  0  0  0  0  0  0
   43.8440   36.6200   29.3340 C   0  0  0  0  0  0  0  0  0  0  0  0
   42.4370   40.5670   29.0340 C   0  0  0  0  0  0  0  0  0  0  0  0
   43.8250   36.4460   30.8510 C   0  0  0  0  0  0  0  0  0  0  0  0
   41.9930   38.1850   29.2480 O   0  0  0  0  0  0  0  0  0  0  0  0
   40.4340   39.3840   28.0870 C   0  0  0  0  0  0  0  0  0  0  0  0
   42.2730   36.1240   31.1040 C   0  0  0  0  0  0  0  0  0  0  0  0
   42.1700   34.6760   31.2200 N   0  0  0  0  0  0  0  0  0  0  0  0
   45.3510   36.6790   31.0710 N   0  0  0  0  0  0  0  0  0  0  0  0
   40.3780   40.6830   27.4810 O   0  0  0  0  0  0  0  0  0  0  0  0
  1  9  1  0
  1  6  1  0
  1  5  1  0
  2 10  1  0
  2  7  1  0
  2  9  1  0
  4  5  1  0
  6  8  1  0
  7  4  1  0
  8 13  1  0
  8 11  1  0
 11 12  1  0
 12  3  1  0
 14 10  1  0
M  END
$$$$

     RDKit          3D

 10 10  0  0  0  0  0  0  0  0999 V2000
   45.4110   37.3260   32.3340 C   0  0  0  0  0  0  0  0  0  0  0  0
   45.1220   39.1180   30.7850 O   0  0  0  0  0  0  0  0  0  0  0  0
   41.8470   35.7300   30.9480 C   0  0  0  0  0  0  0  0  0  0  0  0
   44.8120   36.1690   32.9800 O   0  0  0  0  0  0  0  0  0  0  0  0
   42.6240   36.6050   31.8060 N   0  0  0  0  0  0  0  0  0  0  0  0
   43.4030   37.4700   30.9000 C   0  0  0  0  0  0  0  0  0  0  0  0
   41.5250   34.4300   31.6680 C   0  0  0  0  0  0  0  0  0  0  0  0
   43.6160   36.7490   29.5990 C   0  0  0  0  0  0  0  0  0  0  0  0
   44.6990   38.1120   31.3060 C   0  0  0  0  0  0  0  0  0  0  0  0
   42.7190   35.7280   29.7180 C   0  0  0  0  0  0  0  0  0  0  0  0
  1  4  1  0
  2  9  2  0
  3  7  1  0
  3  5  1  0
  6  9  1  0
  6  5  1  0
  8 10  1  0
  8  6  1  0
  9  1  1  0
 10  3  1  0
M  END
$$$$

     RDKit          3D

 12 12  0  0  0  0  0  0  0  0999 V2000
   40.7100   36.1100   28.2210 O   0  0  0  0  0  0  0  0  0  0  0  0
   43.0700   38.1740   29.5170 C   0  0  0  0  0  0  0  0  0  0  0  0
   44.0620   37.7420   30.5530 C   0  0  0  0  0  0  0  0  0  0  0  0
   41.4180   36.6810   29.1410 C   0  0  0  0  0  0  0  0  0  0  0  0
   44.0310   40.2600   30.0650 O   0  0  0  0  0  0  0  0  0  0  0  0
   42.3060   41.8020   28.5880 C   0  0  0  0  0  0  0  0  0  0  0  0
   42.6140   35.8870   31.1250 C   0  0  0  0  0  0  0  0  0  0  0  0
   41.7270   37.9380   28.9490 N   0  0  0  0  0  0  0  0  0  0  0  0
   43.1500   39.6840   29.4310 C   0  0  0  0  0  0  0  0  0  0  0  0
   42.2090   40.3260   28.7150 N   0  0  0  0  0  0  0  0  0  0  0  0
   41.6210   35.9160   30.2350 N   0  0  0  0  0  0  0  0  0  0  0  0
   44.0860   36.2570   30.7230 C   0  0  0  0  0  0  0  0  0  0  0  0
  1  4  2  0
  2  9  1  0
  2  3  1  0
  3 12  1  0
  4 11  1  0
  6 10  1  0
  8  4  1  0
  8  2  1  0
  9  5  2  0
 10  9  1  0
 11  7  1  0
 12  7  1  0
M  END
$$$$

     RDKit          3D

 11 11  0  0  0  0  0  0  0  0999 V2000
   44.4450   38.6910   31.0170 C   0  0  0  0  0  0  0  0  0  0  0  0
   46.5610   37.5890   30.6250 C   0  0  0  0  0  0  0  0  0  0  0  0
   41.0090   35.5030   29.9730 O   0  0  0  0  0  0  0  0  0  0  0  0
   42.0800   36.7480   28.0780 O   0  0  0  0  0  0  0  0  0  0  0  0
   40.4820   38.3590   29.5150 S   0  0  0  0  0  0  0  0  0  0  0  0
   42.5030   37.4840   30.8220 O   0  0  0  0  0  0  0  0  0  0  0  0
   45.8580   38.7440   30.9060 C   0  0  0  0  0  0  0  0  0  0  0  0
   43.8130   37.5270   30.6930 C   0  0  0  0  0  0  0  0  0  0  0  0
   44.5140   36.3720   30.2980 C   0  0  0  0  0  0  0  0  0  0  0  0
   45.9120   36.4150   30.2590 C   0  0  0  0  0  0  0  0  0  0  0  0
   41.6390   36.8740   29.5060 P   0  0  0  0  0  0  0  0  0  0  0  0
  2  7  2  0
  7  1  1  0
  8  6  1  0
  8  1  2  0
  9  8  1  0
 10  9  2  0
 10  2  1  0
 11  4  2  0
 11  5  1  0
 11  3  1  0
 11  6  1  0
M  END
$$$$

     RDKit          3D

  5  4  0  0  0  0  0  0  0  0999 V2000
   42.6270   35.8710   31.5700 C   0  0  0  0  0  0  0  0  0  0  0  0
   42.9590   37.1670   31.4550 N   0  0  0  0  0  0  0  0  0  0  0  0
   41.2180   35.4750   31.1420 C   0  0  0  0  0  0  0  0  0  0  0  0
   43.4160   35.0160   32.0530 O   0  0  0  0  0  0  0  0  0  0  0  0
   40.9700   33.9630   31.2760 C   0  0  0  0  0  0  0  0  0  0  0  0
  1  4  2  0
  2  1  1  0
  3  5  1  0
  3  1  1  0
M  END
$$$$

     RDKit          3D

 12 12  0  0  0  0  0  0  0  0999 V2000
   42.8210   36.1340   29.9330 C   0  0  0  0  0  0  0  0  0  0  0  0
   43.2530   38.1980   31.3980 C   0  0  0  0  0  0  0  0  0  0  0  0
   42.6750   39.1070   29.5030 C   0  0  0  0  0  0  0  0  0  0  0  0
   42.4340   40.2330   27.9450 S   0  0  0  0  0  0  0  0  0  0  0  0
   40.9600   35.8000   28.5360 O   0  0  0  0  0  0  0  0  0  0  0  0
   41.0800   38.2920   29.3060 S   0  0  0  0  0  0  0  0  0  0  0  0
   43.8230   38.2110   29.1180 C   0  0  0  0  0  0  0  0  0  0  0  0
   41.1050   40.9400   27.9390 C   0  0  0  0  0  0  0  0  0  0  0  0
   41.5340   36.5680   29.1960 C   0  0  0  0  0  0  0  0  0  0  0  0
   43.6940   37.3060   30.3450 N   0  0  0  0  0  0  0  0  0  0  0  0
   42.6290   35.2740   31.0980 N   0  0  0  0  0  0  0  0  0  0  0  0
   41.3900   34.7660   31.4850 C   0  0  0  0  0  0  0  0  0  0  0  0
  1 10  1  0
  1 11  1  0
  3  4  1  0
  5  9  2  0
  6  3  1  0
  7  3  1  0
  7 10  1  0
  8  4  1  0
  9  6  1  0
  9  1  1  0
 10  2  1  0
 11 12  1  0
M  END
$$$$

     RDKit          3D

 19 21  0  0  0  0  0  0  0  0999 V2000
   43.0070   37.7230   30.3510 C   0  0  0  0  0  0  0  0  0  0  0  0
   44.1340   40.6520   28.9090 C   0  0  0  0  0  0  0  0  0  0  0  0
   43.4900   41.9550   28.5620 C   0  0  0  0  0  0  0  0  0  0  0  0
   43.2330   39.4540   29.0230 C   0  0  0  0  0  0  0  0  0  0  0  0
   44.9490   37.5710   28.4830 O   0  0  0  0  0  0  0  0  0  0  0  0
   41.7250   35.8600   28.5080 C   0  0  0  0  0  0  0  0  0  0  0  0
   43.8650   38.2670   28.0580 S   0  0  0  0  0  0  0  0  0  0  0  0
   41.2400   41.1480   28.6150 S   0  0  0  0  0  0  0  0  0  0  0  0
   42.4580   34.7570   32.0300 C   0  0  0  0  0  0  0  0  0  0  0  0
   41.7670   39.5890   28.7820 C   0  0  0  0  0  0  0  0  0  0  0  0
   42.5890   35.3930   30.7020 N   0  0  0  0  0  0  0  0  0  0  0  0
   42.2580   41.8750   27.5530 C   0  0  0  0  0  0  0  0  0  0  0  0
   43.3220   38.0930   26.8270 O   0  0  0  0  0  0  0  0  0  0  0  0
   44.4900   36.9210   31.4870 O   0  0  0  0  0  0  0  0  0  0  0  0
   41.1210   33.9990   32.1180 C   0  0  0  0  0  0  0  0  0  0  0  0
   41.4160   35.9980   29.9310 C   0  0  0  0  0  0  0  0  0  0  0  0
   42.0450   37.1830   29.2300 C   0  0  0  0  0  0  0  0  0  0  0  0
   40.9870   38.2420   28.8560 C   0  0  0  0  0  0  0  0  0  0  0  0
   43.4990   36.5730   30.9890 C   0  0  0  0  0  0  0  0  0  0  0  0
  1 19  1  0
  2  4  1  0
  3  2  1  0
  4  7  1  0
  6 17  1  0
  7 13  1  0
  7  5  2  0
  8 10  1  0
  9 15  1  0
 10 18  1  0
 10  4  1  0
 11 19  1  0
 11  9  1  0
 12  3  1  0
 12  8  1  0
 16  6  1  0
 16 11  1  0
 17 18  1  0
 17 16  1  0
 17  1  1  0
 19 14  2  0
M  END
$$$$

     RDKit          3D

 20 20  0  0  0  0  0  0  0  0999 V2000
   45.9070   35.5900   30.6530 C   0  0  0  0  0  0  0  0  0  0  0  0
   44.9010   35.8400   29.4860 C   0  0  0  0  0  0  0  0  0  0  0  0
   42.3290   36.4930   29.6680 N   0  0  0  0  0  0  0  0  0  0  0  0
   41.1250   39.3810   28.5220 C   0  0  0  0  0  0  0  0  0  0  0  0
   43.1350   37.3790   32.5110 N   0  0  0  0  0  0  0  0  0  0  0  0
   39.9870   36.5120   26.5110 O   0  0  0  0  0  0  0  0  0  0  0  0
   43.6720   36.1980   31.7940 C   0  0  0  0  0  0  0  0  0  0  0  0
   38.3270   38.4670   25.5070 N   0  0  0  0  0  0  0  0  0  0  0  0
   41.1220   36.0970   30.4310 C   0  0  0  0  0  0  0  0  0  0  0  0
   39.2200   40.1070   27.1190 C   0  0  0  0  0  0  0  0  0  0  0  0
   47.1360   35.1250   30.1550 F   0  0  0  0  0  0  0  0  0  0  0  0
   42.1930   37.0010   28.4170 C   0  0  0  0  0  0  0  0  0  0  0  0
   42.9380   36.8080   27.4610 O   0  0  0  0  0  0  0  0  0  0  0  0
   41.0290   37.9220   28.1380 C   0  0  0  0  0  0  0  0  0  0  0  0
   43.6560   36.4080   30.2720 C   0  0  0  0  0  0  0  0  0  0  0  0
   40.0150   37.6750   27.0880 C   0  0  0  0  0  0  0  0  0  0  0  0
   46.2780   36.6850   31.3450 F   0  0  0  0  0  0  0  0  0  0  0  0
   45.4130   36.7740   28.4010 C   0  0  0  0  0  0  0  0  0  0  0  0
   40.2750   40.3840   28.0680 C   0  0  0  0  0  0  0  0  0  0  0  0
   39.0440   38.9070   26.6230 C   0  0  0  0  0  0  0  0  0  0  0  0
  1 17  1  0
  2 18  1  0
  2 15  1  0
  2  1  1  0
  3 15  1  0
  3  9  1  0
  6 16  1  0
  7  5  1  0
  8 20  1  0
 10 19  1  0
 11  1  1  0
 12  3  1  0
 13 12  2  0
 14 12  1  0
 14  4  1  0
 15  7  1  0
 16 14  2  0
 19  4  2  0
 20 16  1  0
 20 10  2  0
M  END
$$$$

     RDKit          3D

 19 18  0  0  0  0  0  0  0  0999 V2000
   37.0840   39.1850   26.0140 C   0  0  0  0  0  0  0  0  0  0  0  0
   38.3420   39.6360   26.6480 C   0  0  0  0  0  0  0  0  0  0  0  0
   43.2890   35.5170   31.3860 C   0  0  0  0  0  0  0  0  0  0  0  0
   41.5200   38.4340   29.1730 C   0  0  0  0  0  0  0  0  0  0  0  0
   41.1380   39.8090   28.8630 N   0  0  0  0  0  0  0  0  0  0  0  0
   35.9950   39.9870   26.4150 O   0  0  0  0  0  0  0  0  0  0  0  0
   40.3170   38.4120   27.1750 C   0  0  0  0  0  0  0  0  0  0  0  0
   45.2070   36.5180   30.5560 C   0  0  0  0  0  0  0  0  0  0  0  0
   44.3600   35.6230   30.7710 N   0  0  0  0  0  0  0  0  0  0  0  0
   41.8370   36.6050   27.5900 O   0  0  0  0  0  0  0  0  0  0  0  0
   41.3890   37.6970   27.8490 C   0  0  0  0  0  0  0  0  0  0  0  0
   43.9590   37.5580   29.0920 C   0  0  0  0  0  0  0  0  0  0  0  0
   37.9440   38.4110   23.8270 C   0  0  0  0  0  0  0  0  0  0  0  0
   39.0360   38.9520   27.6990 C   0  0  0  0  0  0  0  0  0  0  0  0
   42.3280   36.3360   31.5100 O   0  0  0  0  0  0  0  0  0  0  0  0
   43.0330   34.3380   31.8090 N   0  0  0  0  0  0  0  0  0  0  0  0
   37.0590   39.3670   24.5190 C   0  0  0  0  0  0  0  0  0  0  0  0
   42.9080   38.3140   29.8860 C   0  0  0  0  0  0  0  0  0  0  0  0
   45.2810   37.5160   29.5440 O   0  0  0  0  0  0  0  0  0  0  0  0
  1  6  1  0
  1  2  1  0
  2 14  1  0
  3 15  2  0
  3 16  1  0
  4  5  1  0
  4 18  1  0
  7 14  1  0
  7 11  1  0
  8  9  1  0
  9  3  1  0
 10 11  2  0
 11  4  1  0
 12 19  1  0
 12 18  1  0
 13 17  1  0
 17  1  1  0
 19  8  1  0
M  END
$$$$

     RDKit          3D

 17 19  0  0  0  0  0  0  0  0999 V2000
   44.4610   37.0810   30.6850 C   0  0  0  0  0  0  0  0  0  0  0  0
   45.5960   36.9110   29.7610 N   0  0  0  0  0  0  0  0  0  0  0  0
   44.5170   35.8980   31.6500 C   0  0  0  0  0  0  0  0  0  0  0  0
   43.0300   37.0780   30.1370 C   0  0  0  0  0  0  0  0  0  0  0  0
   43.1330   35.5190   31.7020 C   0  0  0  0  0  0  0  0  0  0  0  0
   42.2070   38.3910   29.9180 C   0  0  0  0  0  0  0  0  0  0  0  0
   42.2150   36.6660   27.3090 O   0  0  0  0  0  0  0  0  0  0  0  0
   41.1290   34.3300   31.5180 C   0  0  0  0  0  0  0  0  0  0  0  0
   42.2010   36.4810   31.1850 N   0  0  0  0  0  0  0  0  0  0  0  0
   42.1090   39.4660   28.7910 C   0  0  0  0  0  0  0  0  0  0  0  0
   40.9390   38.6520   26.8170 C   0  0  0  0  0  0  0  0  0  0  0  0
   40.9950   35.6910   30.8250 C   0  0  0  0  0  0  0  0  0  0  0  0
   43.0710   38.9070   27.7540 C   0  0  0  0  0  0  0  0  0  0  0  0
   42.1000   37.8620   27.3160 C   0  0  0  0  0  0  0  0  0  0  0  0
   42.6120   34.1090   31.8590 C   0  0  0  0  0  0  0  0  0  0  0  0
   40.7730   39.5070   28.0810 C   0  0  0  0  0  0  0  0  0  0  0  0
   44.4110   39.3000   28.2250 O   0  0  0  0  0  0  0  0  0  0  0  0
  1  2  1  0
  1  3  1  0
  4  6  1  0
  4  1  1  0
  4  9  1  0
  5  3  1  0
  5 15  1  0
  7 14  2  0
  8 15  1  0
  9 12  1  0
  9  5  1  0
 10  6  1  0
 11 14  1  0
 11 16  1  0
 12  8  1  0
 13 17  1  0
 13 10  1  0
 14 13  1  0
 16 10  1  0
M  END
$$$$

     RDKit          3D

 13 14  0  0  0  0  0  0  0  0999 V2000
   41.7940   34.3190   31.8990 C   0  0  0  0  0  0  0  0  0  0  0  0
   44.1780   37.4610   30.8280 C   0  0  0  0  0  0  0  0  0  0  0  0
   45.7570   37.7670   30.0720 S   0  0  0  0  0  0  0  0  0  0  0  0
   45.5390   38.7810   29.0720 O   0  0  0  0  0  0  0  0  0  0  0  0
   43.4680   36.8680   29.5970 C   0  0  0  0  0  0  0  0  0  0  0  0
   42.1380   35.4860   31.0140 C   0  0  0  0  0  0  0  0  0  0  0  0
   41.5840   36.8790   28.2050 O   0  0  0  0  0  0  0  0  0  0  0  0
   43.5960   36.0690   30.8450 C   0  0  0  0  0  0  0  0  0  0  0  0
   42.0500   37.3930   29.4820 C   0  0  0  0  0  0  0  0  0  0  0  0
   46.2940   36.5320   29.4830 O   0  0  0  0  0  0  0  0  0  0  0  0
   43.8080   38.3770   31.6720 O   0  0  0  0  0  0  0  0  0  0  0  0
   41.2920   36.4340   30.4930 C   0  0  0  0  0  0  0  0  0  0  0  0
   46.6370   38.2630   31.4050 C   0  0  0  0  0  0  0  0  0  0  0  0
  2  8  1  0
  2 11  1  0
  3  2  1  0
  3 13  1  0
  4  3  2  0
  5  2  1  0
  5  8  1  0
  6  1  1  0
  7  9  1  0
  8  6  1  0
  9  5  1  0
  9 12  1  0
 10  3  2  0
 12  6  1  0
M  END
$$$$

     RDKit          3D

 11 10  0  0  0  0  0  0  0  0999 V2000
   45.6290   39.0280   30.2710 O   0  0  0  0  0  0  0  0  0  0  0  0
   44.3340   35.8150   30.2860 O   0  0  0  0  0  0  0  0  0  0  0  0
   41.3500   36.1930   30.7080 C   0  0  0  0  0  0  0  0  0  0  0  0
   45.2520   39.1510   28.9490 C   0  0  0  0  0  0  0  0  0  0  0  0
   43.6270   36.9470   29.3490 P   0  0  0  0  0  0  0  0  0  0  0  0
   41.4770   34.6960   31.0290 C   0  0  0  0  0  0  0  0  0  0  0  0
   44.5430   38.3070   30.9860 C   0  0  0  0  0  0  0  0  0  0  0  0
   44.8760   37.9150   32.0870 O   0  0  0  0  0  0  0  0  0  0  0  0
   44.0190   37.7400   28.1100 O   0  0  0  0  0  0  0  0  0  0  0  0
   43.3710   38.2530   30.3880 O   0  0  0  0  0  0  0  0  0  0  0  0
   41.9820   36.5310   29.3260 C   0  0  0  0  0  0  0  0  0  0  0  0
  1  7  1  0
  3  6  1  0
  4  1  1  0
  5  9  2  0
  5  2  1  0
  5 10  1  0
  7  8  2  0
 10  7  1  0
 11  5  1  0
 11  3  1  0
M  END
$$$$

     RDKit          3D

 15 17  0  0  0  0  0  0  0  0999 V2000
   41.3010   35.3390   29.9370 C   0  0  0  0  0  0  0  0  0  0  0  0
   42.9170   39.0920   28.8470 C   0  0  0  0  0  0  0  0  0  0  0  0
   42.0590   36.0670   30.7820 C   0  0  0  0  0  0  0  0  0  0  0  0
   42.3070   37.7550   29.2110 C   0  0  0  0  0  0  0  0  0  0  0  0
   41.4580   39.9310   26.8970 C   0  0  0  0  0  0  0  0  0  0  0  0
   41.8040   40.0490   28.3570 C   0  0  0  0  0  0  0  0  0  0  0  0
   40.5840   38.7460   26.6690 N   0  0  0  0  0  0  0  0  0  0  0  0
   41.5050   37.0440   28.2930 C   0  0  0  0  0  0  0  0  0  0  0  0
   41.0230   37.4400   26.9030 C   0  0  0  0  0  0  0  0  0  0  0  0
   42.5690   39.7830   26.0630 O   0  0  0  0  0  0  0  0  0  0  0  0
   41.4900   33.7860   31.7130 C   0  0  0  0  0  0  0  0  0  0  0  0
   42.5490   37.2420   30.4200 N   0  0  0  0  0  0  0  0  0  0  0  0
   41.0640   36.6610   25.9750 O   0  0  0  0  0  0  0  0  0  0  0  0
   41.5180   34.8680   30.9520 N   0  0  0  0  0  0  0  0  0  0  0  0
   41.1000   35.7840   28.6610 C   0  0  0  0  0  0  0  0  0  0  0  0
  1  3  1  0
  1 14  1  0
  2  4  1  0
  3 14  1  0
  4 12  1  0
  5 10  1  0
  5  6  1  0
  6  2  1  0
  7  5  1  0
  7  9  1  0
  8 15  1  0
  8  4  2  0
  9  8  1  0
 12  3  2  0
 13  9  2  0
 14 11  1  0
 15  1  2  0
M  END
$$$$

     RDKit          3D

  6  5  0  0  0  0  0  0  0  0999 V2000
   41.1710   37.9990   29.6770 C   0  0  0  0  0  0  0  0  0  0  0  0
   41.2830   37.8250   28.1770 N   0  0  0  0  0  0  0  0  0  0  0  0
   41.9070   34.6170   31.5190 C   0  0  0  0  0  0  0  0  0  0  0  0
   41.3070   35.8870   30.8600 C   0  0  0  0  0  0  0  0  0  0  0  0
   42.0850   37.1520   30.5110 C   0  0  0  0  0  0  0  0  0  0  0  0
   43.1540   34.8360   32.2460 N   0  0  0  0  0  0  0  0  0  0  0  0
  1  5  1  0
  2  1  1  0
  3  6  1  0
  4  3  1  0
  5  4  1  0
M  END
$$$$

     RDKit          3D

 11 11  0  0  0  0  0  0  0  0999 V2000
   42.3600   39.7230   28.6960 N   0  0  0  0  0  0  0  0  0  0  0  0
   43.3330   40.4410   28.5420 O   0  0  0  0  0  0  0  0  0  0  0  0
   41.4390   33.9650   31.7120 C   0  0  0  0  0  0  0  0  0  0  0  0
   41.3000   37.8000   29.7120 C   0  0  0  0  0  0  0  0  0  0  0  0
   42.5340   36.0050   30.8780 C   0  0  0  0  0  0  0  0  0  0  0  0
   43.6810   36.6690   30.4550 C   0  0  0  0  0  0  0  0  0  0  0  0
   42.6100   34.8040   31.5830 N   0  0  0  0  0  0  0  0  0  0  0  0
   41.2500   40.2030   28.2090 O   0  0  0  0  0  0  0  0  0  0  0  0
   41.3540   36.6090   30.5240 C   0  0  0  0  0  0  0  0  0  0  0  0
   43.7190   37.7670   29.6850 C   0  0  0  0  0  0  0  0  0  0  0  0
   42.3250   38.4470   29.3060 C   0  0  0  0  0  0  0  0  0  0  0  0
  1 11  1  0
  2  1  2  0
  4  9  1  0
  5  7  1  0
  6  5  1  0
  7  3  1  0
  8  1  2  0
  9  5  2  0
 10  6  2  0
 11 10  1  0
 11  4  2  0
M  END
$$$$

     RDKit          3D

 12 11  0  0  0  0  0  0  0  0999 V2000
   42.1620   37.4900   27.1410 C   0  0  0  0  0  0  0  0  0  0  0  0
   41.6440   36.3880   28.0440 C   0  0  0  0  0  0  0  0  0  0  0  0
   41.9290   38.6620   29.9970 C   0  0  0  0  0  0  0  0  0  0  0  0
   41.0530   39.0330   29.5270 O   0  0  0  0  0  0  0  0  0  0  0  0
   43.0940   38.2650   30.5990 C   0  0  0  0  0  0  0  0  0  0  0  0
   43.3590   36.8740   30.0550 C   0  0  0  0  0  0  0  0  0  0  0  0
   42.8480   38.0880   31.9780 O   0  0  0  0  0  0  0  0  0  0  0  0
   44.7360   36.6700   30.4320 O   0  0  0  0  0  0  0  0  0  0  0  0
   41.9800   36.4150   29.5530 C   0  0  0  0  0  0  0  0  0  0  0  0
   45.4810   37.8820   30.6940 C   0  0  0  0  0  0  0  0  0  0  0  0
   46.8370   37.3820   31.0330 C   0  0  0  0  0  0  0  0  0  0  0  0
   41.0690   35.8120   30.3340 O   0  0  0  0  0  0  0  0  0  0  0  0
  1  2  1  0
  2  9  1  0
  3  5  1  0
  4  3  1  0
  5  7  1  0
  6  8  1  0
  6  5  1  0
  8 10  1  0
  9  6  1  0
  9 12  1  0
 10 11  1  0
M  END
$$$$
