
     RDKit          3D

 17 19  0  0  0  0  0  0  0  0999 V2000
   39.6770   35.0050   24.5100 N   0  0  0  0  0  0  0  0  0  0  0  0
   38.6120   37.4330   21.9350 N   0  0  0  0  0  0  0  0  0  0  0  0
   39.1390   36.8280   23.0090 C   0  0  0  0  0  0  0  0  0  0  0  0
   38.9500   35.4890   23.4440 C   0  0  0  0  0  0  0  0  0  0  0  0
   39.9990   37.6530   23.6570 C   0  0  0  0  0  0  0  0  0  0  0  0
   41.5940   34.1220   28.3880 C   0  0  0  0  0  0  0  0  0  0  0  0
   44.9800   35.5190   26.8360 C   0  0  0  0  0  0  0  0  0  0  0  0
   42.9840   36.8260   27.3830 C   0  0  0  0  0  0  0  0  0  0  0  0
   43.8120   37.1550   28.5140 O   0  0  0  0  0  0  0  0  0  0  0  0
   43.0830   34.2700   28.4840 C   0  0  0  0  0  0  0  0  0  0  0  0
   40.9940   33.3760   29.3380 C   0  0  0  0  0  0  0  0  0  0  0  0
   43.6140   35.1580   27.3240 C   0  0  0  0  0  0  0  0  0  0  0  0
   40.7260   37.1620   24.6980 C   0  0  0  0  0  0  0  0  0  0  0  0
   42.7750   35.8430   26.4110 N   0  0  0  0  0  0  0  0  0  0  0  0
   41.4310   35.3110   26.2830 C   0  0  0  0  0  0  0  0  0  0  0  0
   40.6020   35.8450   25.1360 C   0  0  0  0  0  0  0  0  0  0  0  0
   40.9130   34.6810   27.3200 N   0  0  0  0  0  0  0  0  0  0  0  0
  1 16  1  0
  2  3  1  0
  3  4  1  0
  3  5  2  0
  4  1  2  0
  5 13  1  0
  6 10  1  0
  6 11  1  0
  8  9  1  0
 12  7  1  0
 12  8  1  0
 12 10  1  0
 13 16  2  0
 14 12  1  0
 14  8  1  0
 15 14  1  0
 15 17  1  0
 16 15  1  0
 17  6  2  0
M  END
$$$$

     RDKit          3D

 16 17  0  0  0  0  0  0  0  0999 V2000
   40.1560   35.3160   25.4840 C   0  0  0  0  0  0  0  0  0  0  0  0
   39.0970   36.8240   23.9340 C   0  0  0  0  0  0  0  0  0  0  0  0
   40.5260   34.1790   27.5830 O   0  0  0  0  0  0  0  0  0  0  0  0
   38.7740   35.7820   23.1260 C   0  0  0  0  0  0  0  0  0  0  0  0
   42.3090   34.5480   28.9770 C   0  0  0  0  0  0  0  0  0  0  0  0
   42.2190   35.5380   26.6750 C   0  0  0  0  0  0  0  0  0  0  0  0
   40.9350   35.1270   26.7390 C   0  0  0  0  0  0  0  0  0  0  0  0
   39.7920   36.5890   25.1030 C   0  0  0  0  0  0  0  0  0  0  0  0
   41.8600   33.2260   29.6860 C   0  0  0  0  0  0  0  0  0  0  0  0
   44.4500   35.0300   27.5150 C   0  0  0  0  0  0  0  0  0  0  0  0
   43.0350   34.9860   27.6980 C   0  0  0  0  0  0  0  0  0  0  0  0
   38.6420   33.5580   22.8000 N   0  0  0  0  0  0  0  0  0  0  0  0
   40.8240   34.8420   28.7260 C   0  0  0  0  0  0  0  0  0  0  0  0
   39.1090   34.5040   23.5500 C   0  0  0  0  0  0  0  0  0  0  0  0
   39.7980   34.2850   24.6830 N   0  0  0  0  0  0  0  0  0  0  0  0
   44.7360   35.5610   26.2920 O   0  0  0  0  0  0  0  0  0  0  0  0
  2  8  2  0
  3 13  1  0
  4 14  2  0
  4  2  1  0
  5  9  1  0
  6  7  1  0
  6 11  1  0
  7  1  1  0
  7  3  1  0
  8  1  1  0
 11 10  1  0
 11  5  1  0
 12 14  1  0
 13  5  1  0
 14 15  1  0
 15  1  2  0
 16 10  1  0
M  END
$$$$

     RDKit          3D

 10  9  0  0  0  0  0  0  0  0999 V2000
   45.6240   36.6530   26.6190 N   0  0  0  0  0  0  0  0  0  0  0  0
   40.8890   35.9830   27.0940 C   0  0  0  0  0  0  0  0  0  0  0  0
   42.6510   34.5010   26.0210 N   0  0  0  0  0  0  0  0  0  0  0  0
   44.1860   36.2720   26.6500 C   0  0  0  0  0  0  0  0  0  0  0  0
   42.3360   37.5140   25.5520 O   0  0  0  0  0  0  0  0  0  0  0  0
   42.0360   34.9900   27.2800 C   0  0  0  0  0  0  0  0  0  0  0  0
   43.9540   35.1320   25.6440 C   0  0  0  0  0  0  0  0  0  0  0  0
   43.8460   38.6090   26.4180 O   0  0  0  0  0  0  0  0  0  0  0  0
   40.0120   35.7670   25.8960 N   0  0  0  0  0  0  0  0  0  0  0  0
   43.4510   37.5270   26.1870 C   0  0  0  0  0  0  0  0  0  0  0  0
  2  6  1  0
  3  6  1  0
  4  1  1  0
  5 10  2  0
  7  3  1  0
  7  4  1  0
  9  2  1  0
 10  8  1  0
 10  4  1  0
M  END
$$$$

     RDKit          3D

  7  6  0  0  0  0  0  0  0  0999 V2000
   43.2320   37.0080   27.3380 O   0  0  0  0  0  0  0  0  0  0  0  0
   42.3560   35.1910   25.7940 C   0  0  0  0  0  0  0  0  0  0  0  0
   41.5160   36.3160   25.8960 C   0  0  0  0  0  0  0  0  0  0  0  0
   42.4490   34.5970   27.0670 O   0  0  0  0  0  0  0  0  0  0  0  0
   43.6020   35.2540   24.9630 C   0  0  0  0  0  0  0  0  0  0  0  0
   40.2040   36.0230   26.2670 O   0  0  0  0  0  0  0  0  0  0  0  0
   42.1370   37.2250   26.9760 C   0  0  0  0  0  0  0  0  0  0  0  0
  2  5  1  0
  2  3  1  0
  2  4  1  0
  3  6  1  0
  3  7  1  0
  7  1  2  0
M  END
$$$$

     RDKit          3D

 16 15  0  0  0  0  0  0  0  0999 V2000
   41.4260   35.6860   27.9250 C   0  0  0  0  0  0  0  0  0  0  0  0
   41.6310   34.2510   28.3800 C   0  0  0  0  0  0  0  0  0  0  0  0
   44.1870   37.7290   25.0650 N   0  0  0  0  0  0  0  0  0  0  0  0
   40.6180   34.6330   25.4690 C   0  0  0  0  0  0  0  0  0  0  0  0
   41.2550   35.7060   26.3760 C   0  0  0  0  0  0  0  0  0  0  0  0
   39.8000   34.8480   24.4620 C   0  0  0  0  0  0  0  0  0  0  0  0
   40.1230   36.2130   28.5580 C   0  0  0  0  0  0  0  0  0  0  0  0
   40.9990   33.4030   27.5200 N   0  0  0  0  0  0  0  0  0  0  0  0
   43.4320   37.0890   26.2070 C   0  0  0  0  0  0  0  0  0  0  0  0
   42.1490   36.6800   25.6000 C   0  0  0  0  0  0  0  0  0  0  0  0
   38.9270   34.8730   23.5330 C   0  0  0  0  0  0  0  0  0  0  0  0
   41.6370   33.8360   29.8050 C   0  0  0  0  0  0  0  0  0  0  0  0
   43.9180   35.7970   27.0830 C   0  0  0  0  0  0  0  0  0  0  0  0
   40.4390   32.9330   29.7620 C   0  0  0  0  0  0  0  0  0  0  0  0
   43.9060   34.4370   27.6560 O   0  0  0  0  0  0  0  0  0  0  0  0
   43.3760   38.7980   24.5290 O   0  0  0  0  0  0  0  0  0  0  0  0
  1  2  1  0
  1  7  1  0
  2  8  1  0
  2 12  1  0
  3  9  1  0
  5  4  1  0
  5  1  1  0
  6  4  1  0
  9 10  1  0
  9 13  1  0
 10  5  1  0
 11  6  3  0
 13 15  1  0
 14 12  1  0
 16  3  1  0
M  END
$$$$

     RDKit          3D

  6  5  0  0  0  0  0  0  0  0999 V2000
   43.4190   36.3950   27.8560 O   0  0  0  0  0  0  0  0  0  0  0  0
   41.6940   35.7370   26.3930 C   0  0  0  0  0  0  0  0  0  0  0  0
   42.9660   35.5070   27.1250 C   0  0  0  0  0  0  0  0  0  0  0  0
   40.9970   36.6690   26.8570 O   0  0  0  0  0  0  0  0  0  0  0  0
   43.7110   34.3390   26.9610 N   0  0  0  0  0  0  0  0  0  0  0  0
   41.4260   34.8870   25.5130 O   0  0  0  0  0  0  0  0  0  0  0  0
  2  4  1  0
  2  3  1  0
  3  1  2  0
  5  3  1  0
  6  2  2  0
M  END
$$$$

     RDKit          3D

 12 13  0  0  0  0  0  0  0  0999 V2000
   41.0620   34.7400   26.7480 C   0  0  0  0  0  0  0  0  0  0  0  0
   43.1860   34.3110   25.8750 O   0  0  0  0  0  0  0  0  0  0  0  0
   40.7970   36.6700   25.4020 C   0  0  0  0  0  0  0  0  0  0  0  0
   40.8630   35.9190   28.8940 N   0  0  0  0  0  0  0  0  0  0  0  0
   42.6000   34.8870   26.9790 C   0  0  0  0  0  0  0  0  0  0  0  0
   43.1170   35.6210   25.6650 C   0  0  0  0  0  0  0  0  0  0  0  0
   40.8410   35.9240   27.5880 C   0  0  0  0  0  0  0  0  0  0  0  0
   39.9840   34.2130   24.7150 O   0  0  0  0  0  0  0  0  0  0  0  0
   40.6320   35.1890   25.3630 C   0  0  0  0  0  0  0  0  0  0  0  0
   40.8670   37.0020   26.6870 O   0  0  0  0  0  0  0  0  0  0  0  0
   42.8050   36.0140   24.2920 O   0  0  0  0  0  0  0  0  0  0  0  0
   43.1040   34.3080   28.0700 O   0  0  0  0  0  0  0  0  0  0  0  0
  1  5  1  0
  1  7  1  0
  2  5  1  0
  3 10  1  0
  5 12  1  0
  6 11  1  0
  6  2  1  0
  6  5  1  0
  7  4  2  0
  9  8  1  0
  9  3  1  0
  9  1  1  0
 10  7  1  0
M  END
$$$$

     RDKit          3D

  8  8  0  0  0  0  0  0  0  0999 V2000
   45.2680   37.2230   27.7800 O   0  0  0  0  0  0  0  0  0  0  0  0
   41.8410   36.0230   25.7300 C   0  0  0  0  0  0  0  0  0  0  0  0
   42.0460   35.3120   27.0670 C   0  0  0  0  0  0  0  0  0  0  0  0
   40.5730   36.3680   26.6590 O   0  0  0  0  0  0  0  0  0  0  0  0
   42.9350   34.2420   27.0240 N   0  0  0  0  0  0  0  0  0  0  0  0
   44.1630   36.5200   27.0480 C   0  0  0  0  0  0  0  0  0  0  0  0
   42.9590   36.3270   27.7210 C   0  0  0  0  0  0  0  0  0  0  0  0
   42.5310   35.3560   24.6710 C   0  0  0  0  0  0  0  0  0  0  0  0
  2  8  1  0
  2  4  1  0
  2  3  1  0
  3  5  1  0
  3  7  1  0
  4  3  1  0
  6  7  1  0
  6  1  1  0
M  END
$$$$

     RDKit          3D

  6  5  0  0  0  0  0  0  0  0999 V2000
   41.9000   35.8480   26.1710 C   0  0  0  0  0  0  0  0  0  0  0  0
   40.6010   36.1210   25.7160 O   0  0  0  0  0  0  0  0  0  0  0  0
   42.6640   37.0750   26.0660 N   0  0  0  0  0  0  0  0  0  0  0  0
   41.7500   35.2720   27.6040 C   0  0  0  0  0  0  0  0  0  0  0  0
   42.8820   34.3390   28.0600 N   0  0  0  0  0  0  0  0  0  0  0  0
   42.4760   34.8540   25.2480 N   0  0  0  0  0  0  0  0  0  0  0  0
  1  4  1  0
  2  1  1  0
  3  1  1  0
  4  5  1  0
  6  1  1  0
M  END
$$$$

     RDKit          3D

 14 14  0  0  0  0  0  0  0  0999 V2000
   43.3370   34.7150   25.5590 C   0  0  0  0  0  0  0  0  0  0  0  0
   45.3590   34.2340   26.8550 O   0  0  0  0  0  0  0  0  0  0  0  0
   40.3890   35.7930   23.2480 N   0  0  0  0  0  0  0  0  0  0  0  0
   42.1370   37.4020   26.5610 C   0  0  0  0  0  0  0  0  0  0  0  0
   44.1400   36.1250   27.7820 C   0  0  0  0  0  0  0  0  0  0  0  0
   40.1510   34.1480   24.8150 O   0  0  0  0  0  0  0  0  0  0  0  0
   44.4560   35.3140   26.4730 C   0  0  0  0  0  0  0  0  0  0  0  0
   42.7760   36.8040   27.7910 C   0  0  0  0  0  0  0  0  0  0  0  0
   40.7620   36.9850   26.7160 O   0  0  0  0  0  0  0  0  0  0  0  0
   40.8070   35.1310   24.4400 C   0  0  0  0  0  0  0  0  0  0  0  0
   42.1560   35.5500   24.9500 N   0  0  0  0  0  0  0  0  0  0  0  0
   43.6130   35.2050   28.8100 O   0  0  0  0  0  0  0  0  0  0  0  0
   42.4770   37.0150   25.0810 C   0  0  0  0  0  0  0  0  0  0  0  0
   39.2790   36.5670   22.8640 C   0  0  0  0  0  0  0  0  0  0  0  0
  1  7  1  0
  3 10  1  0
  4  9  1  0
  4  8  1  0
  5  8  1  0
  5 12  1  0
  7  2  1  0
  7  5  1  0
 10  6  2  0
 10 11  1  0
 11 13  1  0
 11  1  1  0
 13  4  1  0
 14  3  1  0
M  END
$$$$

     RDKit          3D

 12 13  0  0  0  0  0  0  0  0999 V2000
   43.9430   38.0990   27.2830 O   0  0  0  0  0  0  0  0  0  0  0  0
   42.3540   36.4840   27.2720 N   0  0  0  0  0  0  0  0  0  0  0  0
   40.7020   36.1310   25.3350 C   0  0  0  0  0  0  0  0  0  0  0  0
   40.3640   34.7850   25.8840 C   0  0  0  0  0  0  0  0  0  0  0  0
   43.1240   35.6570   26.2290 C   0  0  0  0  0  0  0  0  0  0  0  0
   41.5290   35.4870   27.9830 C   0  0  0  0  0  0  0  0  0  0  0  0
   43.0910   37.4910   26.2010 P   0  0  0  0  0  0  0  0  0  0  0  0
   43.3300   34.2570   26.7720 C   0  0  0  0  0  0  0  0  0  0  0  0
   40.5010   34.6840   27.2540 N   0  0  0  0  0  0  0  0  0  0  0  0
   43.9720   37.5550   24.9060 O   0  0  0  0  0  0  0  0  0  0  0  0
   42.1670   35.9080   25.1060 C   0  0  0  0  0  0  0  0  0  0  0  0
   40.0020   33.8130   25.1430 O   0  0  0  0  0  0  0  0  0  0  0  0
  2  6  1  0
  3  4  1  0
  4  9  1  0
  5  8  1  0
  5  2  1  0
  7 10  2  0
  7  5  1  0
  7  2  1  0
  7  1  1  0
  9  6  2  0
 11  3  1  0
 11  5  1  0
 12  4  2  0
M  END
$$$$

     RDKit          3D

 17 19  0  0  0  0  0  0  0  0999 V2000
   39.8210   34.8030   24.6380 C   0  0  0  0  0  0  0  0  0  0  0  0
   44.3260   35.9630   26.5710 C   0  0  0  0  0  0  0  0  0  0  0  0
   39.6750   35.0180   23.1880 C   0  0  0  0  0  0  0  0  0  0  0  0
   41.0300   35.7630   24.9990 C   0  0  0  0  0  0  0  0  0  0  0  0
   40.4420   36.5370   22.5080 S   0  0  0  0  0  0  0  0  0  0  0  0
   43.2580   37.6890   25.0670 O   0  0  0  0  0  0  0  0  0  0  0  0
   42.3310   35.5290   28.2330 O   0  0  0  0  0  0  0  0  0  0  0  0
   41.3780   36.7010   23.9920 C   0  0  0  0  0  0  0  0  0  0  0  0
   42.2930   37.7080   24.0290 O   0  0  0  0  0  0  0  0  0  0  0  0
   41.3660   35.6820   27.4590 C   0  0  0  0  0  0  0  0  0  0  0  0
   41.8760   35.7070   26.0970 C   0  0  0  0  0  0  0  0  0  0  0  0
   45.3160   36.9670   26.3350 O   0  0  0  0  0  0  0  0  0  0  0  0
   40.6870   36.7840   27.2190 F   0  0  0  0  0  0  0  0  0  0  0  0
   43.8380   35.7170   27.9910 C   0  0  0  0  0  0  0  0  0  0  0  0
   44.9030   34.6420   28.7710 C   0  0  0  0  0  0  0  0  0  0  0  0
   40.4160   34.6340   27.5190 F   0  0  0  0  0  0  0  0  0  0  0  0
   43.0890   36.3880   25.6620 C   0  0  0  0  0  0  0  0  0  0  0  0
  1  4  1  0
  2 12  1  0
  2 14  1  0
  3  1  1  0
  5  3  1  0
  5  8  1  0
  8  9  1  0
  8  4  2  0
  9  6  1  0
 10 16  1  0
 10  7  1  0
 11  4  1  0
 11 10  1  0
 13 10  1  0
 14  7  1  0
 14 15  1  0
 17  6  1  0
 17 11  1  0
 17  2  1  0
M  END
$$$$

     RDKit          3D

 13 12  0  0  0  0  0  0  0  0999 V2000
   42.3610   36.9260   27.7130 O   0  0  0  0  0  0  0  0  0  0  0  0
   42.5960   34.8800   26.6160 C   0  0  0  0  0  0  0  0  0  0  0  0
   44.0410   36.0300   28.9470 O   0  0  0  0  0  0  0  0  0  0  0  0
   42.0420   35.6070   27.9280 C   0  0  0  0  0  0  0  0  0  0  0  0
   43.8280   37.2150   27.9560 C   0  0  0  0  0  0  0  0  0  0  0  0
   39.9680   36.5000   26.8270 O   0  0  0  0  0  0  0  0  0  0  0  0
   42.8820   36.9550   25.5370 C   0  0  0  0  0  0  0  0  0  0  0  0
   43.1680   37.5280   24.1680 C   0  0  0  0  0  0  0  0  0  0  0  0
   43.7260   34.8520   26.5070 O   0  0  0  0  0  0  0  0  0  0  0  0
   42.1050   35.8500   25.5760 C   0  0  0  0  0  0  0  0  0  0  0  0
   40.6460   35.6610   26.3220 C   0  0  0  0  0  0  0  0  0  0  0  0
   42.1830   37.9990   23.5100 O   0  0  0  0  0  0  0  0  0  0  0  0
   40.0670   34.4400   26.2620 O   0  0  0  0  0  0  0  0  0  0  0  0
  1  4  1  0
  1  5  1  0
  2  9  1  0
  2  4  1  0
  5  3  1  0
  8  7  1  0
 10  7  1  0
 10 11  1  0
 10  2  1  0
 11  6  1  0
 12  8  2  0
 13 11  2  0
M  END
$$$$

     RDKit          3D

 17 18  0  0  0  0  0  0  0  0999 V2000
   40.8070   35.0180   26.1690 C   0  0  0  0  0  0  0  0  0  0  0  0
   42.5240   36.5220   25.6610 C   0  0  0  0  0  0  0  0  0  0  0  0
   42.7250   38.5390   23.4580 I   0  0  0  0  0  0  0  0  0  0  0  0
   40.0070   35.5860   25.3190 N   0  0  0  0  0  0  0  0  0  0  0  0
   43.7930   35.4130   28.3250 C   0  0  0  0  0  0  0  0  0  0  0  0
   44.9360   36.5570   26.5800 O   0  0  0  0  0  0  0  0  0  0  0  0
   42.0830   35.4770   26.3620 C   0  0  0  0  0  0  0  0  0  0  0  0
   41.7340   37.0810   24.6080 C   0  0  0  0  0  0  0  0  0  0  0  0
   39.5580   37.0320   23.6290 O   0  0  0  0  0  0  0  0  0  0  0  0
   44.7870   36.5220   27.9440 C   0  0  0  0  0  0  0  0  0  0  0  0
   40.3270   32.4550   29.3060 S   0  0  0  0  0  0  0  0  0  0  0  0
   40.5860   34.0820   27.1150 N   0  0  0  0  0  0  0  0  0  0  0  0
   42.8330   34.7460   27.3500 C   0  0  0  0  0  0  0  0  0  0  0  0
   40.4580   36.5690   24.5320 C   0  0  0  0  0  0  0  0  0  0  0  0
   41.5440   34.1660   27.8630 C   0  0  0  0  0  0  0  0  0  0  0  0
   41.6710   33.5880   29.3410 C   0  0  0  0  0  0  0  0  0  0  0  0
   44.4420   37.8040   28.6130 C   0  0  0  0  0  0  0  0  0  0  0  0
  1  7  1  0
  1 12  1  0
  2  7  2  0
  4  1  2  0
  6 10  1  0
  7 13  1  0
  8  3  1  0
  8  2  1  0
  9 14  2  0
 10  5  1  0
 10 17  1  0
 11 16  1  0
 12 15  1  0
 13 15  1  0
 13  5  1  0
 14  8  1  0
 14  4  1  0
 15 16  1  0
M  END
$$$$

     RDKit          3D

 17 17  0  0  0  0  0  0  0  0999 V2000
   39.8650   35.0020   28.2950 C   0  0  0  0  0  0  0  0  0  0  0  0
   37.5730   35.1440   20.7560 C   0  0  0  0  0  0  0  0  0  0  0  0
   38.4790   35.7100   19.6280 C   0  0  0  0  0  0  0  0  0  0  0  0
   41.2080   36.2180   25.3060 O   0  0  0  0  0  0  0  0  0  0  0  0
   37.6990   33.6130   20.8400 C   0  0  0  0  0  0  0  0  0  0  0  0
   40.3140   34.6470   29.5210 C   0  0  0  0  0  0  0  0  0  0  0  0
   39.7260   37.0730   23.7240 N   0  0  0  0  0  0  0  0  0  0  0  0
   38.0350   35.8180   22.0500 C   0  0  0  0  0  0  0  0  0  0  0  0
   38.6960   35.0800   23.1410 C   0  0  0  0  0  0  0  0  0  0  0  0
   43.8430   34.1910   28.8230 N   0  0  0  0  0  0  0  0  0  0  0  0
   42.0450   34.6310   27.3910 C   0  0  0  0  0  0  0  0  0  0  0  0
   42.5120   34.3840   28.6340 C   0  0  0  0  0  0  0  0  0  0  0  0
   40.7890   34.8970   27.2880 C   0  0  0  0  0  0  0  0  0  0  0  0
   40.0910   35.2500   25.5540 S   0  0  0  0  0  0  0  0  0  0  0  0
   39.0540   35.9690   24.1830 C   0  0  0  0  0  0  0  0  0  0  0  0
   41.6340   34.3110   29.6720 C   0  0  0  0  0  0  0  0  0  0  0  0
   39.7330   33.8410   25.2380 O   0  0  0  0  0  0  0  0  0  0  0  0
  1  6  1  0
  2  5  1  0
  2  8  1  0
  3  2  1  0
  4 14  2  0
  6 16  2  0
  8  9  1  0
  9 15  1  0
 11 12  2  0
 12 10  1  0
 12 16  1  0
 13 11  1  0
 13  1  2  0
 14 13  1  0
 15  7  1  0
 15 14  1  0
 17 14  2  0
M  END
$$$$

     RDKit          3D

 10 10  0  0  0  0  0  0  0  0999 V2000
   43.1760   35.3050   23.8100 O   0  0  0  0  0  0  0  0  0  0  0  0
   43.3190   35.7720   26.4140 C   0  0  0  0  0  0  0  0  0  0  0  0
   43.2860   36.8270   28.5260 O   0  0  0  0  0  0  0  0  0  0  0  0
   41.9850   35.5590   26.9760 C   0  0  0  0  0  0  0  0  0  0  0  0
   39.6660   35.4890   26.0660 O   0  0  0  0  0  0  0  0  0  0  0  0
   43.6750   35.5510   24.9460 C   0  0  0  0  0  0  0  0  0  0  0  0
   40.8240   36.0520   26.0760 C   0  0  0  0  0  0  0  0  0  0  0  0
   40.9470   36.9840   25.3550 O   0  0  0  0  0  0  0  0  0  0  0  0
   42.8730   36.7200   27.2480 C   0  0  0  0  0  0  0  0  0  0  0  0
   42.4000   34.1140   27.2550 O   0  0  0  0  0  0  0  0  0  0  0  0
  1  6  2  0
  2  6  1  0
  2  4  1  0
  2  9  1  0
  4  9  1  0
  4 10  1  0
  5  7  1  0
  7  4  1  0
  8  7  2  0
  9  3  1  0
M  END
$$$$

     RDKit          3D

  8  7  0  0  0  0  0  0  0  0999 V2000
   43.7460   34.3220   26.5200 O   0  0  0  0  0  0  0  0  0  0  0  0
   42.6310   35.2140   25.9920 C   0  0  0  0  0  0  0  0  0  0  0  0
   41.2000   35.6510   26.6660 C   0  0  0  0  0  0  0  0  0  0  0  0
   42.1470   37.0820   28.1320 O   0  0  0  0  0  0  0  0  0  0  0  0
   43.1120   37.3320   27.0600 C   0  0  0  0  0  0  0  0  0  0  0  0
   43.2650   36.5960   25.6890 C   0  0  0  0  0  0  0  0  0  0  0  0
   40.8730   37.0130   26.3940 F   0  0  0  0  0  0  0  0  0  0  0  0
   41.4040   34.7180   27.7010 O   0  0  0  0  0  0  0  0  0  0  0  0
  2  1  1  0
  2  3  1  0
  3  7  1  0
  3  8  1  0
  5  4  1  0
  6  2  1  0
  6  5  1  0
M  END
$$$$

     RDKit          3D

  7  6  0  0  0  0  0  0  0  0999 V2000
   42.2990   37.0060   28.3280 O   0  0  0  0  0  0  0  0  0  0  0  0
   43.4140   34.3980   27.1610 O   0  0  0  0  0  0  0  0  0  0  0  0
   40.8210   35.9890   26.5300 C   0  0  0  0  0  0  0  0  0  0  0  0
   41.2160   34.9320   25.4760 O   0  0  0  0  0  0  0  0  0  0  0  0
   43.9720   36.4600   26.2190 C   0  0  0  0  0  0  0  0  0  0  0  0
   43.1340   35.6660   26.9950 C   0  0  0  0  0  0  0  0  0  0  0  0
   42.0670   36.2490   27.3560 C   0  0  0  0  0  0  0  0  0  0  0  0
  3  7  1  0
  4  3  1  0
  6  5  1  0
  6  2  1  0
  6  7  1  0
  7  1  2  0
M  END
$$$$

     RDKit          3D

 24 25  0  0  0  0  0  0  0  0999 V2000
   40.4370   34.3210   28.5970 C   0  0  0  0  0  0  0  0  0  0  0  0
   38.2650   31.3750   29.4080 C   0  0  0  0  0  0  0  0  0  0  0  0
   45.1550   37.4330   26.6970 C   0  0  0  0  0  0  0  0  0  0  0  0
   43.8300   37.7200   26.0350 C   0  0  0  0  0  0  0  0  0  0  0  0
   41.0420   36.8910   25.4990 C   0  0  0  0  0  0  0  0  0  0  0  0
   41.3700   36.3310   26.9250 C   0  0  0  0  0  0  0  0  0  0  0  0
   38.0450   32.3240   22.8410 O   0  0  0  0  0  0  0  0  0  0  0  0
   37.4350   30.6040   30.4700 C   0  0  0  0  0  0  0  0  0  0  0  0
   40.3150   35.1120   27.3360 C   0  0  0  0  0  0  0  0  0  0  0  0
   39.4700   35.6800   23.7580 C   0  0  0  0  0  0  0  0  0  0  0  0
   39.1850   32.5250   29.8090 C   0  0  0  0  0  0  0  0  0  0  0  0
   38.8070   34.3800   23.4640 C   0  0  0  0  0  0  0  0  0  0  0  0
   44.9240   36.4490   27.8220 C   0  0  0  0  0  0  0  0  0  0  0  0
   38.2550   31.0070   28.0500 C   0  0  0  0  0  0  0  0  0  0  0  0
   42.5670   37.2650   26.7230 N   0  0  0  0  0  0  0  0  0  0  0  0
   44.0760   35.1470   27.4960 C   0  0  0  0  0  0  0  0  0  0  0  0
   36.0720   29.7990   29.8700 C   0  0  0  0  0  0  0  0  0  0  0  0
   39.8730   35.9350   25.1050 C   0  0  0  0  0  0  0  0  0  0  0  0
   38.7690   33.5480   22.3870 N   0  0  0  0  0  0  0  0  0  0  0  0
   43.7900   38.2650   24.7540 O   0  0  0  0  0  0  0  0  0  0  0  0
   39.5130   35.1460   26.0470 C   0  0  0  0  0  0  0  0  0  0  0  0
   39.8490   33.0070   28.5120 C   0  0  0  0  0  0  0  0  0  0  0  0
   43.5980   36.0950   28.4650 C   0  0  0  0  0  0  0  0  0  0  0  0
   38.0010   33.8630   24.4840 O   0  0  0  0  0  0  0  0  0  0  0  0
  2 14  1  0
  2 11  1  0
  2  8  1  0
  3 13  1  0
  4  3  1  0
  4 15  1  0
  5  6  1  0
  6 15  1  0
  6  9  1  0
  9  1  1  0
 10 18  1  0
 12 10  1  0
 12 24  2  0
 13 23  1  0
 16 13  1  0
 16 23  1  0
 17  8  1  0
 18  5  2  0
 18 21  1  0
 19  7  1  0
 19 12  1  0
 20  4  2  0
 21  9  2  0
 22  1  1  0
 22 11  1  0
M  END
$$$$

     RDKit          3D

  6  5  0  0  0  0  0  0  0  0999 V2000
   41.7010   35.2210   27.4540 F   0  0  0  0  0  0  0  0  0  0  0  0
   41.4250   37.5990   27.4120 O   0  0  0  0  0  0  0  0  0  0  0  0
   42.5240   35.7230   25.5280 F   0  0  0  0  0  0  0  0  0  0  0  0
   42.7550   37.0920   27.3630 C   0  0  0  0  0  0  0  0  0  0  0  0
   42.7590   35.6920   26.8380 C   0  0  0  0  0  0  0  0  0  0  0  0
   43.9660   34.8240   27.0350 C   0  0  0  0  0  0  0  0  0  0  0  0
  3  5  1  0
  4  2  1  0
  5  6  1  0
  5  4  1  0
  5  1  1  0
M  END
$$$$
