
     RDKit          3D

 17 20  0  0  0  0  0  0  0  0999 V2000
   36.0940   38.7960   22.4560 C   0  0  0  0  0  0  0  0  0  0  0  0
   38.3770   34.8650   21.2630 C   0  0  0  0  0  0  0  0  0  0  0  0
   37.2970   39.0720   22.5180 N   0  0  0  0  0  0  0  0  0  0  0  0
   40.8830   36.9560   20.5320 O   0  0  0  0  0  0  0  0  0  0  0  0
   43.4820   36.1060   21.4790 O   0  0  0  0  0  0  0  0  0  0  0  0
   35.7540   37.5510   22.1620 N   0  0  0  0  0  0  0  0  0  0  0  0
   42.4400   34.0060   21.4620 O   0  0  0  0  0  0  0  0  0  0  0  0
   37.9170   37.9880   22.3200 C   0  0  0  0  0  0  0  0  0  0  0  0
   34.4610   36.9720   22.0230 C   0  0  0  0  0  0  0  0  0  0  0  0
   39.4560   37.8170   22.4400 C   0  0  0  0  0  0  0  0  0  0  0  0
   37.0300   35.4200   21.3730 N   0  0  0  0  0  0  0  0  0  0  0  0
   36.9580   36.7570   21.9560 C   0  0  0  0  0  0  0  0  0  0  0  0
   39.4830   35.7130   20.9250 C   0  0  0  0  0  0  0  0  0  0  0  0
   41.0120   35.5850   20.5820 C   0  0  0  0  0  0  0  0  0  0  0  0
   42.3210   35.2500   21.6410 P   0  0  0  0  0  0  0  0  0  0  0  0
   41.0460   35.5790   22.9280 C   0  0  0  0  0  0  0  0  0  0  0  0
   40.2990   36.6410   21.8910 C   0  0  0  0  0  0  0  0  0  0  0  0
  1  3  2  0
  2 11  1  0
  4 17  1  0
  5 15  1  0
  6  1  1  0
  8 10  1  0
  8  3  1  0
  9  6  1  0
 11 12  1  0
 12  6  1  0
 12  8  2  0
 13  2  1  0
 13 17  1  0
 14  4  1  0
 14 13  1  0
 14 15  1  0
 15  7  2  0
 15 16  1  0
 17 10  1  0
 17 16  1  0
M  END
$$$$

     RDKit          3D

  7  6  0  0  0  0  0  0  0  0999 V2000
   40.9230   34.6490   20.8360 Cl  0  0  0  0  0  0  0  0  0  0  0  0
   40.8420   37.4890   21.1590 C   0  0  0  0  0  0  0  0  0  0  0  0
   40.2860   38.4780   22.0420 O   0  0  0  0  0  0  0  0  0  0  0  0
   38.4190   36.5040   23.0580 O   0  0  0  0  0  0  0  0  0  0  0  0
   38.8170   35.9330   22.0550 C   0  0  0  0  0  0  0  0  0  0  0  0
   37.9430   35.0020   21.2940 C   0  0  0  0  0  0  0  0  0  0  0  0
   40.2880   36.1210   21.5720 C   0  0  0  0  0  0  0  0  0  0  0  0
  2  7  1  0
  2  3  1  0
  5  4  2  0
  6  5  1  0
  7  1  1  0
  7  5  1  0
M  END
$$$$

     RDKit          3D

  6  5  0  0  0  0  0  0  0  0999 V2000
   41.1330   35.9340   21.8980 C   0  0  0  0  0  0  0  0  0  0  0  0
   42.2610   36.4180   22.7900 C   0  0  0  0  0  0  0  0  0  0  0  0
   40.2940   38.0770   20.4820 C   0  0  0  0  0  0  0  0  0  0  0  0
   40.2390   36.9620   21.2890 C   0  0  0  0  0  0  0  0  0  0  0  0
   40.9110   34.5780   21.8290 O   0  0  0  0  0  0  0  0  0  0  0  0
   42.8230   37.6650   22.2790 N   0  0  0  0  0  0  0  0  0  0  0  0
  1  5  1  0
  1  2  1  0
  3  4  2  0
  4  1  1  0
  6  2  1  0
M  END
$$$$

     RDKit          3D

  7  6  0  0  0  0  0  0  0  0999 V2000
   37.5580   36.4150   19.5500 C   0  0  0  0  0  0  0  0  0  0  0  0
   39.5640   37.1550   20.9120 S   0  0  0  0  0  0  0  0  0  0  0  0
   37.7000   35.4530   20.7070 N   0  0  0  0  0  0  0  0  0  0  0  0
   38.7890   35.8390   21.7220 C   0  0  0  0  0  0  0  0  0  0  0  0
   40.0880   38.2920   22.0280 O   0  0  0  0  0  0  0  0  0  0  0  0
   37.9220   34.0390   20.3460 C   0  0  0  0  0  0  0  0  0  0  0  0
   36.3380   35.3210   21.3490 C   0  0  0  0  0  0  0  0  0  0  0  0
  1  3  1  0
  2  4  1  0
  2  5  2  0
  3  7  1  0
  3  4  1  0
  6  3  1  0
M  END
$$$$

     RDKit          3D

 10 11  0  0  0  0  0  0  0  0999 V2000
   35.8610   38.3550   21.7460 O   0  0  0  0  0  0  0  0  0  0  0  0
   37.4900   35.4470   20.9910 C   0  0  0  0  0  0  0  0  0  0  0  0
   37.2850   39.4620   23.1880 O   0  0  0  0  0  0  0  0  0  0  0  0
   38.8110   35.7880   21.7410 N   0  0  0  0  0  0  0  0  0  0  0  0
   39.7910   35.8880   20.5670 C   0  0  0  0  0  0  0  0  0  0  0  0
   37.0000   38.6960   22.2340 C   0  0  0  0  0  0  0  0  0  0  0  0
   38.8090   37.0870   22.6030 C   0  0  0  0  0  0  0  0  0  0  0  0
   38.0480   38.0400   21.4600 C   0  0  0  0  0  0  0  0  0  0  0  0
   39.0070   37.2360   20.0570 C   0  0  0  0  0  0  0  0  0  0  0  0
   37.5270   36.4350   19.7970 C   0  0  0  0  0  0  0  0  0  0  0  0
  1  6  2  0
  2  4  1  0
  4  5  1  0
  4  7  1  0
  6  3  1  0
  8  6  1  0
  8  7  1  0
  9 10  1  0
  9  5  1  0
  9  8  1  0
 10  2  1  0
M  END
$$$$

     RDKit          3D

 16 17  0  0  0  0  0  0  0  0999 V2000
   41.0000   38.3650   25.3950 C   0  0  0  0  0  0  0  0  0  0  0  0
   41.9740   39.1360   25.5490 O   0  0  0  0  0  0  0  0  0  0  0  0
   39.0490   36.5120   25.0400 C   0  0  0  0  0  0  0  0  0  0  0  0
   39.5410   36.6220   26.4510 C   0  0  0  0  0  0  0  0  0  0  0  0
   39.0050   36.0800   22.1120 C   0  0  0  0  0  0  0  0  0  0  0  0
   40.4760   38.1170   24.1180 C   0  0  0  0  0  0  0  0  0  0  0  0
   38.5340   34.2600   25.5250 C   0  0  0  0  0  0  0  0  0  0  0  0
   39.0970   35.1890   23.2360 C   0  0  0  0  0  0  0  0  0  0  0  0
   39.2150   35.1320   24.5400 N   0  0  0  0  0  0  0  0  0  0  0  0
   38.2330   38.2420   22.9690 C   0  0  0  0  0  0  0  0  0  0  0  0
   37.8740   36.7920   22.5230 C   0  0  0  0  0  0  0  0  0  0  0  0
   39.7480   35.5780   19.7890 O   0  0  0  0  0  0  0  0  0  0  0  0
   39.7510   36.2210   21.0580 C   0  0  0  0  0  0  0  0  0  0  0  0
   37.2990   39.2760   23.3130 O   0  0  0  0  0  0  0  0  0  0  0  0
   39.1090   37.7430   24.1240 C   0  0  0  0  0  0  0  0  0  0  0  0
   40.4480   37.7790   26.6130 C   0  0  0  0  0  0  0  0  0  0  0  0
  1  2  2  0
  1 16  1  0
  3  4  1  0
  4 16  1  0
  5 13  1  0
  5 11  1  0
  5  8  1  0
  6  1  1  0
  8  9  1  0
  9  3  1  0
  9  7  1  0
 10 14  1  0
 10 15  1  0
 11 10  1  0
 12 13  1  0
 15  6  1  0
 15  3  1  0
M  END
$$$$

     RDKit          3D

 10  9  0  0  0  0  0  0  0  0999 V2000
   37.6360   40.2490   21.8950 O   0  0  0  0  0  0  0  0  0  0  0  0
   37.0270   36.9250   20.8730 C   0  0  0  0  0  0  0  0  0  0  0  0
   38.9440   35.6910   20.3530 C   0  0  0  0  0  0  0  0  0  0  0  0
   38.2050   38.7840   23.6660 O   0  0  0  0  0  0  0  0  0  0  0  0
   37.7950   36.0210   22.8910 O   0  0  0  0  0  0  0  0  0  0  0  0
   36.3520   35.9970   20.3220 O   0  0  0  0  0  0  0  0  0  0  0  0
   36.1990   38.1580   21.7420 S   0  0  0  0  0  0  0  0  0  0  0  0
   37.5210   39.0130   22.8140 C   0  0  0  0  0  0  0  0  0  0  0  0
   39.6340   34.5460   20.7880 O   0  0  0  0  0  0  0  0  0  0  0  0
   38.2390   36.3100   21.5650 C   0  0  0  0  0  0  0  0  0  0  0  0
  1  8  2  0
  2  6  1  0
  2 10  1  0
  2  7  1  0
  3  9  1  0
  3 10  1  0
  7  8  1  0
  8  4  1  0
 10  5  1  0
M  END
$$$$

     RDKit          3D

  9  9  0  0  0  0  0  0  0  0999 V2000
   40.4200   37.5530   20.4850 Cl  0  0  0  0  0  0  0  0  0  0  0  0
   39.2310   34.8810   20.9350 N   0  0  0  0  0  0  0  0  0  0  0  0
   38.3040   35.9290   20.8540 N   0  0  0  0  0  0  0  0  0  0  0  0
   36.9110   35.7310   20.7120 C   0  0  0  0  0  0  0  0  0  0  0  0
   36.5450   37.9340   21.7200 C   0  0  0  0  0  0  0  0  0  0  0  0
   37.6980   38.0500   21.7320 C   0  0  0  0  0  0  0  0  0  0  0  0
   38.7480   37.2680   21.0700 C   0  0  0  0  0  0  0  0  0  0  0  0
   36.0330   36.6740   21.1270 C   0  0  0  0  0  0  0  0  0  0  0  0
   38.4880   39.3560   22.8290 Cl  0  0  0  0  0  0  0  0  0  0  0  0
  1  7  1  0
  3  2  1  0
  3  7  1  0
  4  3  1  0
  4  8  1  0
  5  6  1  0
  6  9  1  0
  7  6  2  0
  8  5  2  0
M  END
$$$$

     RDKit          3D

 15 16  0  0  0  0  0  0  0  0999 V2000
   35.8420   35.5810   23.5030 C   0  0  0  0  0  0  0  0  0  0  0  0
   32.7710   37.2040   21.8010 N   0  0  0  0  0  0  0  0  0  0  0  0
   34.1000   34.1980   22.6830 O   0  0  0  0  0  0  0  0  0  0  0  0
   34.5780   35.3690   22.7290 C   0  0  0  0  0  0  0  0  0  0  0  0
   33.9580   36.4700   22.0050 C   0  0  0  0  0  0  0  0  0  0  0  0
   34.9560   37.0760   21.1080 C   0  0  0  0  0  0  0  0  0  0  0  0
   33.0200   38.1420   20.8660 C   0  0  0  0  0  0  0  0  0  0  0  0
   38.7690   35.5100   20.8330 C   0  0  0  0  0  0  0  0  0  0  0  0
   38.5840   36.1980   23.6810 O   0  0  0  0  0  0  0  0  0  0  0  0
   38.2450   35.6910   22.3040 C   0  0  0  0  0  0  0  0  0  0  0  0
   39.3750   36.8130   20.3050 C   0  0  0  0  0  0  0  0  0  0  0  0
   36.2220   36.6990   21.2840 N   0  0  0  0  0  0  0  0  0  0  0  0
   36.1950   34.5220   24.6240 C   0  0  0  0  0  0  0  0  0  0  0  0
   36.7050   35.7190   22.2150 C   0  0  0  0  0  0  0  0  0  0  0  0
   34.2830   38.0470   20.4530 N   0  0  0  0  0  0  0  0  0  0  0  0
  1 13  1  0
  2  5  2  0
  3  4  2  0
  4  1  1  0
  5  4  1  0
  6 12  2  0
  6  5  1  0
  7  2  1  0
  8 10  1  0
 10  9  1  0
 11  8  1  0
 12 14  1  0
 14 10  1  0
 14  1  1  0
 15  7  2  0
 15  6  1  0
M  END
$$$$

     RDKit          3D

  8  8  0  0  0  0  0  0  0  0999 V2000
   39.4770   35.7670   21.6740 C   0  0  0  0  0  0  0  0  0  0  0  0
   40.2270   36.9570   21.6640 N   0  0  0  0  0  0  0  0  0  0  0  0
   38.5750   38.0980   20.1460 C   0  0  0  0  0  0  0  0  0  0  0  0
   37.5170   34.5580   20.7220 N   0  0  0  0  0  0  0  0  0  0  0  0
   40.0450   38.0320   20.6430 C   0  0  0  0  0  0  0  0  0  0  0  0
   38.2230   35.6380   20.8470 C   0  0  0  0  0  0  0  0  0  0  0  0
   39.9150   34.7370   22.3340 N   0  0  0  0  0  0  0  0  0  0  0  0
   37.9600   36.8020   20.1790 N   0  0  0  0  0  0  0  0  0  0  0  0
  1  7  2  0
  2  1  1  0
  3  8  1  0
  3  5  1  0
  4  6  1  0
  5  2  1  0
  6  1  1  0
  8  6  2  0
M  END
$$$$

     RDKit          3D

  8  7  0  0  0  0  0  0  0  0999 V2000
   41.7660   37.5800   23.2500 C   0  0  0  0  0  0  0  0  0  0  0  0
   37.8460   35.8630   22.5380 N   0  0  0  0  0  0  0  0  0  0  0  0
   41.3570   34.9890   22.9460 C   0  0  0  0  0  0  0  0  0  0  0  0
   39.0330   35.4610   22.2640 C   0  0  0  0  0  0  0  0  0  0  0  0
   39.5920   35.6580   21.2080 O   0  0  0  0  0  0  0  0  0  0  0  0
   39.8240   34.8100   23.4450 C   0  0  0  0  0  0  0  0  0  0  0  0
   41.5810   36.3260   23.1460 C   0  0  0  0  0  0  0  0  0  0  0  0
   42.3720   38.5320   23.3580 O   0  0  0  0  0  0  0  0  0  0  0  0
  1  8  1  0
  3  7  1  0
  3  6  1  0
  4  2  1  0
  4  6  1  0
  5  4  2  0
  7  1  3  0
M  END
$$$$

     RDKit          3D

 10 10  0  0  0  0  0  0  0  0999 V2000
   38.5450   35.8070   21.5910 S   0  0  0  0  0  0  0  0  0  0  0  0
   39.5420   35.6260   22.9780 N   0  0  0  0  0  0  0  0  0  0  0  0
   36.7630   37.4690   20.5290 N   0  0  0  0  0  0  0  0  0  0  0  0
   35.2850   38.4570   21.7900 C   0  0  0  0  0  0  0  0  0  0  0  0
   39.3330   36.1960   20.3170 O   0  0  0  0  0  0  0  0  0  0  0  0
   36.4480   37.8730   22.9800 S   0  0  0  0  0  0  0  0  0  0  0  0
   36.1030   38.6290   20.5690 N   0  0  0  0  0  0  0  0  0  0  0  0
   38.0180   34.4230   21.3560 O   0  0  0  0  0  0  0  0  0  0  0  0
   40.7430   34.8500   22.7790 N   0  0  0  0  0  0  0  0  0  0  0  0
   37.0810   36.9640   21.6990 C   0  0  0  0  0  0  0  0  0  0  0  0
  1  2  1  0
  3  7  1  0
  3 10  1  0
  4  6  1  0
  5  1  2  0
  7  4  1  0
  8  1  2  0
  9  2  1  0
 10  1  1  0
 10  6  1  0
M  END
$$$$

     RDKit          3D

  8  8  0  0  0  0  0  0  0  0999 V2000
   37.1460   38.7490   23.0720 C   0  0  0  0  0  0  0  0  0  0  0  0
   38.7660   35.9360   22.7610 C   0  0  0  0  0  0  0  0  0  0  0  0
   38.3370   34.5160   20.7980 C   0  0  0  0  0  0  0  0  0  0  0  0
   38.0490   36.9760   22.2090 C   0  0  0  0  0  0  0  0  0  0  0  0
   38.0600   38.0320   22.9610 C   0  0  0  0  0  0  0  0  0  0  0  0
   37.1370   35.3580   20.5470 C   0  0  0  0  0  0  0  0  0  0  0  0
   39.2590   34.8630   21.9750 C   0  0  0  0  0  0  0  0  0  0  0  0
   37.1580   36.8010   20.9780 C   0  0  0  0  0  0  0  0  0  0  0  0
  3  7  1  0
  4  2  1  0
  4  5  1  0
  5  1  2  0
  6  3  1  0
  6  8  1  0
  7  2  1  0
  8  4  1  0
M  END
$$$$

     RDKit          3D

 15 14  0  0  0  0  0  0  0  0999 V2000
   35.1510   37.5960   20.7070 C   0  0  0  0  0  0  0  0  0  0  0  0
   40.4150   35.5020   20.2640 C   0  0  0  0  0  0  0  0  0  0  0  0
   37.0200   35.7330   21.2910 O   0  0  0  0  0  0  0  0  0  0  0  0
   38.0380   37.7440   22.1700 C   0  0  0  0  0  0  0  0  0  0  0  0
   34.2310   37.5980   19.5050 C   0  0  0  0  0  0  0  0  0  0  0  0
   41.0960   37.6970   22.5730 O   0  0  0  0  0  0  0  0  0  0  0  0
   33.8760   40.2490   19.9150 C   0  0  0  0  0  0  0  0  0  0  0  0
   39.7980   35.7810   21.4370 C   0  0  0  0  0  0  0  0  0  0  0  0
   36.6480   37.8610   20.1650 N   0  0  0  0  0  0  0  0  0  0  0  0
   39.2270   34.5420   21.9000 O   0  0  0  0  0  0  0  0  0  0  0  0
   38.8480   37.0790   23.3100 C   0  0  0  0  0  0  0  0  0  0  0  0
   36.9710   38.9470   22.9360 S   0  0  0  0  0  0  0  0  0  0  0  0
   40.1490   36.5870   22.6290 C   0  0  0  0  0  0  0  0  0  0  0  0
   34.1240   39.0260   19.0040 C   0  0  0  0  0  0  0  0  0  0  0  0
   37.4060   36.8960   21.1330 C   0  0  0  0  0  0  0  0  0  0  0  0
  2  8  2  0
  4 12  1  0
  4 11  1  0
  5  1  1  0
  8 10  1  0
  8 13  1  0
  9  1  1  0
  9 15  1  0
 13  6  1  0
 13 11  1  0
 14  5  1  0
 14  7  1  0
 15  3  2  0
 15  4  1  0
M  END
$$$$

     RDKit          3D

  9  8  0  0  0  0  0  0  0  0999 V2000
   40.1620   35.9160   23.9780 N   0  0  0  0  0  0  0  0  0  0  0  0
   36.1380   38.8770   22.2030 C   0  0  0  0  0  0  0  0  0  0  0  0
   36.9730   35.6500   23.4640 O   0  0  0  0  0  0  0  0  0  0  0  0
   35.1810   36.9990   21.9620 O   0  0  0  0  0  0  0  0  0  0  0  0
   37.1940   36.7330   22.8450 C   0  0  0  0  0  0  0  0  0  0  0  0
   39.5640   37.1610   23.6950 C   0  0  0  0  0  0  0  0  0  0  0  0
   39.7040   34.6120   23.4620 C   0  0  0  0  0  0  0  0  0  0  0  0
   36.1640   37.4780   22.3440 C   0  0  0  0  0  0  0  0  0  0  0  0
   38.6220   37.2050   22.4720 C   0  0  0  0  0  0  0  0  0  0  0  0
  2  8  1  0
  4  8  2  0
  5  3  2  0
  6  1  1  0
  7  1  1  0
  8  5  1  0
  9  5  1  0
  9  6  1  0
M  END
$$$$

     RDKit          3D

 10  9  0  0  0  0  0  0  0  0999 V2000
   37.6890   38.0240   21.8760 C   0  0  0  0  0  0  0  0  0  0  0  0
   38.7080   37.9280   20.8880 N   0  0  0  0  0  0  0  0  0  0  0  0
   37.2690   39.5220   19.9530 O   0  0  0  0  0  0  0  0  0  0  0  0
   36.4330   39.6300   20.9560 C   0  0  0  0  0  0  0  0  0  0  0  0
   38.6690   36.1920   23.0970 N   0  0  0  0  0  0  0  0  0  0  0  0
   37.1360   39.2130   22.2850 C   0  0  0  0  0  0  0  0  0  0  0  0
   38.8240   35.0110   22.4470 C   0  0  0  0  0  0  0  0  0  0  0  0
   38.0400   34.6470   21.4870 C   0  0  0  0  0  0  0  0  0  0  0  0
   39.8070   34.1710   22.8500 N   0  0  0  0  0  0  0  0  0  0  0  0
   37.5180   37.0450   23.0070 C   0  0  0  0  0  0  0  0  0  0  0  0
  1  2  1  0
  1  6  1  0
  1 10  1  0
  3  4  1  0
  4  6  1  0
  7  9  2  0
  7  5  1  0
  8  7  1  0
 10  5  1  0
M  END
$$$$

     RDKit          3D

 13 15  0  0  0  0  0  0  0  0999 V2000
   37.6200   38.3110   21.7490 C   0  0  0  0  0  0  0  0  0  0  0  0
   39.6820   37.9880   20.3500 N   0  0  0  0  0  0  0  0  0  0  0  0
   34.0630   37.4870   22.4610 O   0  0  0  0  0  0  0  0  0  0  0  0
   36.3010   38.1560   21.3330 O   0  0  0  0  0  0  0  0  0  0  0  0
   35.1290   36.5860   22.7830 C   0  0  0  0  0  0  0  0  0  0  0  0
   40.2440   34.4780   20.7570 O   0  0  0  0  0  0  0  0  0  0  0  0
   36.3970   37.0100   22.1640 C   0  0  0  0  0  0  0  0  0  0  0  0
   38.1460   37.7510   24.0950 O   0  0  0  0  0  0  0  0  0  0  0  0
   38.4600   37.4000   20.9780 C   0  0  0  0  0  0  0  0  0  0  0  0
   40.0220   35.6860   20.7870 C   0  0  0  0  0  0  0  0  0  0  0  0
   40.3120   36.6560   19.8470 O   0  0  0  0  0  0  0  0  0  0  0  0
   39.3090   36.5300   21.7600 N   0  0  0  0  0  0  0  0  0  0  0  0
   37.3540   37.6000   23.0660 C   0  0  0  0  0  0  0  0  0  0  0  0
  1  4  1  0
  1  7  1  0
  1 13  1  0
  3  5  1  0
  4  7  1  0
  6 10  2  0
  7  5  1  0
  7 13  1  0
  9  2  1  0
  9  1  1  0
  9 12  1  0
 10 12  1  0
 11  2  1  0
 11 10  1  0
 13  8  1  0
M  END
$$$$

     RDKit          3D

  8  7  0  0  0  0  0  0  0  0999 V2000
   39.1950   37.1820   23.5440 O   0  0  0  0  0  0  0  0  0  0  0  0
   39.7150   36.4360   22.4060 C   0  0  0  0  0  0  0  0  0  0  0  0
   37.3480   36.0760   22.6120 O   0  0  0  0  0  0  0  0  0  0  0  0
   38.4630   35.6250   21.9720 C   0  0  0  0  0  0  0  0  0  0  0  0
   38.4350   35.5810   20.4800 C   0  0  0  0  0  0  0  0  0  0  0  0
   39.3140   34.5750   20.0900 O   0  0  0  0  0  0  0  0  0  0  0  0
   40.5900   37.5700   20.0350 S   0  0  0  0  0  0  0  0  0  0  0  0
   40.7710   36.1920   21.2860 C   0  0  0  0  0  0  0  0  0  0  0  0
  2  1  1  0
  4  2  1  0
  4  3  1  0
  5  4  1  0
  6  5  1  0
  7  8  1  0
  8  2  1  0
M  END
$$$$

     RDKit          3D

  7  7  0  0  0  0  0  0  0  0999 V2000
   39.0870   34.9190   23.7240 N   0  0  0  0  0  0  0  0  0  0  0  0
   38.3000   37.3150   22.3140 C   0  0  0  0  0  0  0  0  0  0  0  0
   38.2930   36.1560   20.2160 N   0  0  0  0  0  0  0  0  0  0  0  0
   40.5960   36.3520   22.5180 N   0  0  0  0  0  0  0  0  0  0  0  0
   37.9510   37.3580   20.9360 N   0  0  0  0  0  0  0  0  0  0  0  0
   39.1770   35.8510   22.5260 S   0  0  0  0  0  0  0  0  0  0  0  0
   38.7930   35.0270   21.0690 C   0  0  0  0  0  0  0  0  0  0  0  0
  2  6  1  0
  3  5  1  0
  3  7  1  0
  4  6  1  0
  5  2  1  0
  6  1  1  0
  7  6  1  0
M  END
$$$$

     RDKit          3D

 26 27  0  0  0  0  0  0  0  0999 V2000
   38.6850   36.5830   24.3980 C   0  0  0  0  0  0  0  0  0  0  0  0
   29.8000   31.3130   21.0490 C   0  0  0  0  0  0  0  0  0  0  0  0
   39.9280   38.6620   24.1080 N   0  0  0  0  0  0  0  0  0  0  0  0
   39.6000   37.6420   22.0340 C   0  0  0  0  0  0  0  0  0  0  0  0
   39.0220   37.7180   23.4100 C   0  0  0  0  0  0  0  0  0  0  0  0
   38.9330   33.6590   25.3390 C   0  0  0  0  0  0  0  0  0  0  0  0
   30.4710   29.3330   22.6740 C   0  0  0  0  0  0  0  0  0  0  0  0
   31.1010   32.0200   21.2600 C   0  0  0  0  0  0  0  0  0  0  0  0
   38.1160   35.9860   21.1670 C   0  0  0  0  0  0  0  0  0  0  0  0
   35.0540   35.1880   22.9910 C   0  0  0  0  0  0  0  0  0  0  0  0
   40.5310   39.1960   23.1190 C   0  0  0  0  0  0  0  0  0  0  0  0
   34.8760   35.9660   22.0580 C   0  0  0  0  0  0  0  0  0  0  0  0
   29.3870   30.5050   22.2960 C   0  0  0  0  0  0  0  0  0  0  0  0
   37.7270   35.6030   23.8270 C   0  0  0  0  0  0  0  0  0  0  0  0
   37.3060   35.8970   22.4220 C   0  0  0  0  0  0  0  0  0  0  0  0
   32.8030   34.9510   22.1840 C   0  0  0  0  0  0  0  0  0  0  0  0
   32.7710   36.2500   21.4250 C   0  0  0  0  0  0  0  0  0  0  0  0
   33.8490   37.0110   21.9660 O   0  0  0  0  0  0  0  0  0  0  0  0
   39.4510   36.2270   21.2940 C   0  0  0  0  0  0  0  0  0  0  0  0
   32.8960   33.6820   21.4120 N   0  0  0  0  0  0  0  0  0  0  0  0
   31.9610   31.4640   21.5480 O   0  0  0  0  0  0  0  0  0  0  0  0
   31.4930   33.4670   21.0960 C   0  0  0  0  0  0  0  0  0  0  0  0
   39.1850   36.3720   25.4530 O   0  0  0  0  0  0  0  0  0  0  0  0
   36.1410   36.2790   22.7710 C   0  0  0  0  0  0  0  0  0  0  0  0
   37.4710   33.7940   25.3070 N   0  0  0  0  0  0  0  0  0  0  0  0
   36.7400   34.8030   24.6690 C   0  0  0  0  0  0  0  0  0  0  0  0
  1 23  2  0
  2  8  1  0
  2 13  1  0
  4  5  1  0
  5  3  1  0
  5  1  1  0
  8 21  2  0
  9 19  1  0
 11  3  1  0
 12 18  1  0
 12 24  1  0
 12 10  1  0
 13  7  1  0
 14  1  1  0
 14 26  1  0
 15  9  1  0
 15 24  1  0
 15 14  1  0
 17 18  1  0
 17 16  1  0
 19  4  1  0
 20 16  1  0
 22  8  1  0
 22 20  1  0
 24 10  1  0
 25  6  1  0
 26 25  1  0
M  END
$$$$
