
     RDKit          3D

  7  6  0  0  0  0  0  0  0  0999 V2000
   38.3230   40.1050   22.5990 P   0  0  0  0  0  0  0  0  0  0  0  0
   39.7600   39.7660   21.5370 O   0  0  0  0  0  0  0  0  0  0  0  0
   39.4360   39.7540   23.7020 O   0  0  0  0  0  0  0  0  0  0  0  0
   36.3650   38.7740   21.9810 O   0  0  0  0  0  0  0  0  0  0  0  0
   37.6980   38.5020   22.1230 C   0  0  0  0  0  0  0  0  0  0  0  0
   37.2630   40.9450   23.6960 O   0  0  0  0  0  0  0  0  0  0  0  0
   37.7720   41.2250   21.7990 O   0  0  0  0  0  0  0  0  0  0  0  0
  1  6  1  0
  1  3  1  0
  2  1  1  0
  4  5  1  0
  5  1  1  0
  7  1  1  0
M  END
$$$$

     RDKit          3D

 10  9  0  0  0  0  0  0  0  0999 V2000
   37.6440   36.5750   24.1330 C   0  0  0  0  0  0  0  0  0  0  0  0
   35.3320   39.1140   22.7380 S   0  0  0  0  0  0  0  0  0  0  0  0
   39.1370   38.5690   21.7830 O   0  0  0  0  0  0  0  0  0  0  0  0
   36.3180   35.7920   21.9650 O   0  0  0  0  0  0  0  0  0  0  0  0
   37.1620   41.2430   22.7130 O   0  0  0  0  0  0  0  0  0  0  0  0
   37.9350   39.0070   21.9460 C   0  0  0  0  0  0  0  0  0  0  0  0
   36.8220   37.9960   22.3540 C   0  0  0  0  0  0  0  0  0  0  0  0
   38.5550   36.1880   21.7980 O   0  0  0  0  0  0  0  0  0  0  0  0
   37.4840   40.4420   21.5530 C   0  0  0  0  0  0  0  0  0  0  0  0
   37.3780   36.5670   22.5820 C   0  0  0  0  0  0  0  0  0  0  0  0
  4 10  1  0
  6  3  1  0
  6  7  1  0
  7 10  1  0
  7  2  1  0
  8 10  1  0
  9  6  1  0
  9  5  1  0
 10  1  1  0
M  END
$$$$

     RDKit          3D

  7  6  0  0  0  0  0  0  0  0999 V2000
   38.0040   37.4810   21.9730 C   0  0  0  0  0  0  0  0  0  0  0  0
   37.1500   40.7820   22.8680 O   0  0  0  0  0  0  0  0  0  0  0  0
   35.8540   38.7080   23.0060 C   0  0  0  0  0  0  0  0  0  0  0  0
   39.1930   36.8160   22.5170 N   0  0  0  0  0  0  0  0  0  0  0  0
   37.1270   37.0300   24.1700 O   0  0  0  0  0  0  0  0  0  0  0  0
   36.1680   39.8380   22.0640 C   0  0  0  0  0  0  0  0  0  0  0  0
   37.0270   37.7370   23.1340 C   0  0  0  0  0  0  0  0  0  0  0  0
  1  4  1  0
  1  7  1  0
  3  7  1  0
  6  2  1  0
  6  3  1  0
  7  5  2  0
M  END
$$$$

     RDKit          3D

 24 24  0  0  0  0  0  0  0  0999 V2000
   37.4100   36.2020   22.7150 C   0  0  0  0  0  0  0  0  0  0  0  0
   37.6890   32.0770   30.2990 S   0  0  0  0  0  0  0  0  0  0  0  0
   37.7250   36.4000   24.1240 C   0  0  0  0  0  0  0  0  0  0  0  0
   34.7300   36.2760   20.0780 O   0  0  0  0  0  0  0  0  0  0  0  0
   35.2330   37.8150   23.0480 C   0  0  0  0  0  0  0  0  0  0  0  0
   34.1700   35.8410   21.2450 C   0  0  0  0  0  0  0  0  0  0  0  0
   36.7670   30.7450   30.7930 C   0  0  0  0  0  0  0  0  0  0  0  0
   36.7250   33.2340   26.5900 C   0  0  0  0  0  0  0  0  0  0  0  0
   35.1210   35.8050   22.2450 C   0  0  0  0  0  0  0  0  0  0  0  0
   36.8380   41.0520   20.3230 O   0  0  0  0  0  0  0  0  0  0  0  0
   35.7300   30.5500   29.9280 C   0  0  0  0  0  0  0  0  0  0  0  0
   38.4410   40.4240   21.9370 O   0  0  0  0  0  0  0  0  0  0  0  0
   36.8070   32.2840   28.9030 C   0  0  0  0  0  0  0  0  0  0  0  0
   35.7620   40.2620   22.2500 C   0  0  0  0  0  0  0  0  0  0  0  0
   36.9900   30.0100   31.8750 O   0  0  0  0  0  0  0  0  0  0  0  0
   37.3690   35.3250   25.1010 C   0  0  0  0  0  0  0  0  0  0  0  0
   36.8870   34.4700   25.8220 C   0  0  0  0  0  0  0  0  0  0  0  0
   37.1440   39.9690   21.1670 P   0  0  0  0  0  0  0  0  0  0  0  0
   36.1370   39.2380   23.7160 S   0  0  0  0  0  0  0  0  0  0  0  0
   35.9360   36.7830   22.4560 C   0  0  0  0  0  0  0  0  0  0  0  0
   35.8740   31.2660   28.7440 C   0  0  0  0  0  0  0  0  0  0  0  0
   33.0410   35.6290   21.4770 O   0  0  0  0  0  0  0  0  0  0  0  0
   37.5830   38.6390   20.6210 O   0  0  0  0  0  0  0  0  0  0  0  0
   37.0350   33.4790   28.0630 C   0  0  0  0  0  0  0  0  0  0  0  0
  1  3  1  0
  2  7  1  0
  3 16  1  0
  4  6  2  0
  5 19  1  0
  6 22  1  0
  6  9  1  0
  7 15  2  0
  8 24  1  0
 10 18  2  0
 11  7  1  0
 13 24  1  0
 13  2  1  0
 14 19  1  0
 16 17  3  0
 17  8  1  0
 18 12  1  0
 18 14  1  0
 20  9  1  0
 20  1  1  0
 20  5  1  0
 21 13  1  0
 21 11  1  0
 23 18  1  0
M  END
$$$$

     RDKit          3D

 12 12  0  0  0  0  0  0  0  0999 V2000
   37.7910   38.3380   21.0300 C   0  0  0  0  0  0  0  0  0  0  0  0
   36.5390   39.1640   21.5010 C   0  0  0  0  0  0  0  0  0  0  0  0
   39.0500   36.4730   21.8700 C   0  0  0  0  0  0  0  0  0  0  0  0
   37.8990   38.5400   23.5040 C   0  0  0  0  0  0  0  0  0  0  0  0
   37.8650   36.3920   19.4210 O   0  0  0  0  0  0  0  0  0  0  0  0
   37.9190   37.4660   22.3630 C   0  0  0  0  0  0  0  0  0  0  0  0
   37.3460   40.7620   22.6420 O   0  0  0  0  0  0  0  0  0  0  0  0
   36.8040   36.6010   22.8760 O   0  0  0  0  0  0  0  0  0  0  0  0
   38.1850   37.5710   19.6190 C   0  0  0  0  0  0  0  0  0  0  0  0
   40.0800   36.9780   21.0350 O   0  0  0  0  0  0  0  0  0  0  0  0
   36.9020   39.5500   22.9270 C   0  0  0  0  0  0  0  0  0  0  0  0
   38.3640   38.4830   18.7070 N   0  0  0  0  0  0  0  0  0  0  0  0
  1  9  1  0
  1  2  1  0
  1  6  1  0
  2 11  1  0
  3  6  1  0
  5  9  2  0
  6  8  1  0
  6  4  1  0
 10  3  1  0
 11  7  1  0
 11  4  1  0
 12  9  1  0
M  END
$$$$

     RDKit          3D

  4  3  0  0  0  0  0  0  0  0999 V2000
   36.2180   39.1700   23.6450 O   0  0  0  0  0  0  0  0  0  0  0  0
   36.5510   37.8110   23.7260 N   0  0  0  0  0  0  0  0  0  0  0  0
   37.8740   37.1550   23.6050 C   0  0  0  0  0  0  0  0  0  0  0  0
   37.7910   35.7890   24.0780 O   0  0  0  0  0  0  0  0  0  0  0  0
  1  2  1  0
  3  2  1  0
  3  4  1  0
M  END
$$$$

     RDKit          3D

 10 10  0  0  0  0  0  0  0  0999 V2000
   37.3680   37.8130   22.7560 C   0  0  0  0  0  0  0  0  0  0  0  0
   37.4320   36.3390   22.8710 C   0  0  0  0  0  0  0  0  0  0  0  0
   39.5020   39.2030   19.8830 O   0  0  0  0  0  0  0  0  0  0  0  0
   37.4190   35.4330   22.0050 N   0  0  0  0  0  0  0  0  0  0  0  0
   38.1290   38.5680   21.7450 C   0  0  0  0  0  0  0  0  0  0  0  0
   38.0100   39.7990   22.2280 N   0  0  0  0  0  0  0  0  0  0  0  0
   37.1480   39.9350   23.2020 N   0  0  0  0  0  0  0  0  0  0  0  0
   36.6500   38.7640   23.5900 C   0  0  0  0  0  0  0  0  0  0  0  0
   39.0810   37.1990   19.8760 O   0  0  0  0  0  0  0  0  0  0  0  0
   38.9230   38.2730   20.4470 C   0  0  0  0  0  0  0  0  0  0  0  0
  1  2  1  0
  1  8  1  0
  3 10  1  0
  4  2  2  0
  5  6  2  0
  5  1  1  0
  6  7  1  0
  7  8  1  0
  9 10  2  0
 10  5  1  0
M  END
$$$$

     RDKit          3D

 13 12  0  0  0  0  0  0  0  0999 V2000
   37.5930   36.4280   22.4770 N   0  0  0  0  0  0  0  0  0  0  0  0
   35.1910   37.1960   22.0970 C   0  0  0  0  0  0  0  0  0  0  0  0
   35.4500   38.5000   21.4960 C   0  0  0  0  0  0  0  0  0  0  0  0
   35.4220   39.9450   23.0290 F   0  0  0  0  0  0  0  0  0  0  0  0
   37.4000   38.8900   23.1010 C   0  0  0  0  0  0  0  0  0  0  0  0
   37.3950   37.3760   23.2120 C   0  0  0  0  0  0  0  0  0  0  0  0
   34.6350   36.7250   20.6250 F   0  0  0  0  0  0  0  0  0  0  0  0
   35.3550   35.9230   20.9950 C   0  0  0  0  0  0  0  0  0  0  0  0
   38.1290   39.7990   23.5340 O   0  0  0  0  0  0  0  0  0  0  0  0
   34.7600   39.0710   20.5150 F   0  0  0  0  0  0  0  0  0  0  0  0
   37.0340   40.1750   21.3200 F   0  0  0  0  0  0  0  0  0  0  0  0
   36.9720   35.9430   21.1860 C   0  0  0  0  0  0  0  0  0  0  0  0
   36.2540   39.3850   22.1950 C   0  0  0  0  0  0  0  0  0  0  0  0
  1  6  1  0
  3  2  1  0
  3 13  1  0
  5  6  1  0
  5  9  2  0
  7  8  1  0
  8 12  1  0
 10  3  1  0
 11 13  1  0
 12  1  1  0
 13  4  1  0
 13  5  1  0
M  END
$$$$

     RDKit          3D

  8  7  0  0  0  0  0  0  0  0999 V2000
   35.8960   38.9320   21.4550 C   0  0  0  0  0  0  0  0  0  0  0  0
   37.4760   37.0020   21.7440 C   0  0  0  0  0  0  0  0  0  0  0  0
   38.2250   35.7840   21.7550 O   0  0  0  0  0  0  0  0  0  0  0  0
   37.0140   36.5010   24.1570 O   0  0  0  0  0  0  0  0  0  0  0  0
   36.8610   40.5760   21.8570 Br  0  0  0  0  0  0  0  0  0  0  0  0
   35.8760   38.6950   20.2930 O   0  0  0  0  0  0  0  0  0  0  0  0
   36.5490   36.6980   22.9150 C   0  0  0  0  0  0  0  0  0  0  0  0
   35.4640   38.2330   22.8680 S   0  0  0  0  0  0  0  0  0  0  0  0
  1  5  1  0
  1  8  1  0
  2  3  1  0
  2  7  1  0
  6  1  2  0
  7  4  1  0
  8  7  1  0
M  END
$$$$

     RDKit          3D

 13 13  0  0  0  0  0  0  0  0999 V2000
   38.1860   38.0130   24.6930 C   0  0  0  0  0  0  0  0  0  0  0  0
   35.7310   37.0930   21.3820 C   0  0  0  0  0  0  0  0  0  0  0  0
   36.5920   37.3870   22.5490 C   0  0  0  0  0  0  0  0  0  0  0  0
   36.2620   36.5110   18.7090 C   0  0  0  0  0  0  0  0  0  0  0  0
   37.0440   38.9640   18.4440 C   0  0  0  0  0  0  0  0  0  0  0  0
   36.1680   36.0030   20.1970 C   0  0  0  0  0  0  0  0  0  0  0  0
   35.8010   37.9830   18.2400 C   0  0  0  0  0  0  0  0  0  0  0  0
   37.4000   36.8680   24.7710 C   0  0  0  0  0  0  0  0  0  0  0  0
   36.5540   36.5010   23.6490 C   0  0  0  0  0  0  0  0  0  0  0  0
   38.1930   38.9350   23.5160 C   0  0  0  0  0  0  0  0  0  0  0  0
   34.3500   38.2590   18.6340 N   0  0  0  0  0  0  0  0  0  0  0  0
   34.4490   37.5430   21.2980 O   0  0  0  0  0  0  0  0  0  0  0  0
   37.3580   38.5160   22.4220 C   0  0  0  0  0  0  0  0  0  0  0  0
  1  8  1  0
  2 12  1  0
  2  3  1  0
  3  9  1  0
  4  6  2  3
  6  2  1  0
  7  5  1  0
  7 11  1  0
  7  4  1  0
  9  8  2  0
 10  1  2  0
 13  3  2  0
 13 10  1  0
M  END
$$$$

     RDKit          3D

 14 15  0  0  0  0  0  0  0  0999 V2000
   37.9000   40.1540   20.7990 S   0  0  0  0  0  0  0  0  0  0  0  0
   38.1780   35.5750   22.8420 O   0  0  0  0  0  0  0  0  0  0  0  0
   38.5040   40.4340   19.6190 O   0  0  0  0  0  0  0  0  0  0  0  0
   39.6820   37.0650   20.5240 C   0  0  0  0  0  0  0  0  0  0  0  0
   38.5210   37.4540   21.4350 C   0  0  0  0  0  0  0  0  0  0  0  0
   37.8860   37.8080   23.7800 C   0  0  0  0  0  0  0  0  0  0  0  0
   37.8210   42.7620   21.6780 N   0  0  0  0  0  0  0  0  0  0  0  0
   38.5610   38.8890   21.5710 N   0  0  0  0  0  0  0  0  0  0  0  0
   39.5610   42.4310   21.4510 C   0  0  0  0  0  0  0  0  0  0  0  0
   36.5490   40.3710   21.0080 O   0  0  0  0  0  0  0  0  0  0  0  0
   38.5330   41.5170   21.8760 C   0  0  0  0  0  0  0  0  0  0  0  0
   38.6800   36.9100   22.8400 C   0  0  0  0  0  0  0  0  0  0  0  0
   38.8130   43.5710   20.8990 O   0  0  0  0  0  0  0  0  0  0  0  0
   38.2260   39.2580   23.6310 C   0  0  0  0  0  0  0  0  0  0  0  0
  1 10  2  0
  1  8  1  0
  3  1  2  0
  5  4  1  0
  5  8  1  0
  5 12  1  0
  7 13  1  0
  7 11  1  0
  9 13  1  0
  9  7  1  0
  9 11  1  0
 11  1  1  0
 12  2  1  0
 12  6  1  0
 14  6  1  0
M  END
$$$$

     RDKit          3D

 12 14  0  0  0  0  0  0  0  0999 V2000
   35.7160   37.5210   23.3900 C   0  0  0  0  0  0  0  0  0  0  0  0
   35.0060   36.9850   20.6860 O   0  0  0  0  0  0  0  0  0  0  0  0
   36.7080   38.7670   24.3070 S   0  0  0  0  0  0  0  0  0  0  0  0
   36.4790   36.7540   22.5080 C   0  0  0  0  0  0  0  0  0  0  0  0
   34.4070   37.5070   23.9780 O   0  0  0  0  0  0  0  0  0  0  0  0
   34.4650   38.2410   22.8590 C   0  0  0  0  0  0  0  0  0  0  0  0
   36.2160   36.7620   21.1910 C   0  0  0  0  0  0  0  0  0  0  0  0
   33.9940   37.4440   21.5980 C   0  0  0  0  0  0  0  0  0  0  0  0
   37.5930   35.9890   22.5760 N   0  0  0  0  0  0  0  0  0  0  0  0
   33.3530   36.3510   22.0540 O   0  0  0  0  0  0  0  0  0  0  0  0
   37.2240   36.1350   20.3120 C   0  0  0  0  0  0  0  0  0  0  0  0
   38.0770   35.7830   21.3240 C   0  0  0  0  0  0  0  0  0  0  0  0
  1  5  1  0
  1  3  1  0
  2  7  1  0
  2  8  1  0
  4  9  1  0
  4  1  1  0
  6  1  1  0
  6  5  1  0
  7 11  1  0
  7  4  1  0
  8 10  1  0
  8  6  1  0
 11 12  1  0
 12  9  1  0
M  END
$$$$

     RDKit          3D

 13 13  0  0  0  0  0  0  0  0999 V2000
   37.8530   37.4970   19.7770 C   0  0  0  0  0  0  0  0  0  0  0  0
   34.6520   37.6580   19.6060 O   0  0  0  0  0  0  0  0  0  0  0  0
   38.4670   36.8600   21.0190 C   0  0  0  0  0  0  0  0  0  0  0  0
   38.5330   37.1270   23.6140 C   0  0  0  0  0  0  0  0  0  0  0  0
   36.3240   38.7540   21.1040 N   0  0  0  0  0  0  0  0  0  0  0  0
   36.6250   38.8410   23.6180 C   0  0  0  0  0  0  0  0  0  0  0  0
   35.5800   39.5950   23.6610 O   0  0  0  0  0  0  0  0  0  0  0  0
   38.1620   37.6520   22.2820 N   0  0  0  0  0  0  0  0  0  0  0  0
   38.1110   34.8540   23.2910 N   0  0  0  0  0  0  0  0  0  0  0  0
   37.5980   35.9940   24.0250 C   0  0  0  0  0  0  0  0  0  0  0  0
   36.7260   37.9680   22.4080 C   0  0  0  0  0  0  0  0  0  0  0  0
   37.3830   38.8630   20.0800 C   0  0  0  0  0  0  0  0  0  0  0  0
   34.8680   38.5490   20.7280 C   0  0  0  0  0  0  0  0  0  0  0  0
  1 12  1  0
  1  3  1  0
  2 13  1  0
  3  8  1  0
  4 10  1  0
  5 11  1  0
  6  7  1  0
  8 11  1  0
  8  4  1  0
  9 10  1  0
 11  6  1  0
 12  5  1  0
 13  5  1  0
M  END
$$$$

     RDKit          3D

 14 14  0  0  0  0  0  0  0  0999 V2000
   36.5550   37.9880   23.9850 C   0  0  0  0  0  0  0  0  0  0  0  0
   34.6150   37.4080   19.9050 C   0  0  0  0  0  0  0  0  0  0  0  0
   36.8660   37.2100   21.8070 C   0  0  0  0  0  0  0  0  0  0  0  0
   35.8480   38.8010   18.3260 O   0  0  0  0  0  0  0  0  0  0  0  0
   35.9030   38.5340   19.7240 C   0  0  0  0  0  0  0  0  0  0  0  0
   39.7490   38.9460   20.9050 O   0  0  0  0  0  0  0  0  0  0  0  0
   37.5730   36.8810   24.0640 C   0  0  0  0  0  0  0  0  0  0  0  0
   38.0340   40.1240   21.8330 O   0  0  0  0  0  0  0  0  0  0  0  0
   38.4740   39.1040   20.9360 C   0  0  0  0  0  0  0  0  0  0  0  0
   35.7690   37.7910   22.6780 C   0  0  0  0  0  0  0  0  0  0  0  0
   33.3740   37.7330   19.0050 C   0  0  0  0  0  0  0  0  0  0  0  0
   37.2320   38.0840   20.5170 C   0  0  0  0  0  0  0  0  0  0  0  0
   37.4290   35.3530   23.7570 C   0  0  0  0  0  0  0  0  0  0  0  0
   38.0930   37.3340   22.6780 N   0  0  0  0  0  0  0  0  0  0  0  0
  1  7  1  0
  3 12  1  0
  3 10  1  0
  3 14  1  0
  5  4  1  0
  5  2  1  0
  5 12  1  0
  6  9  2  0
  7 13  1  0
  9  8  1  0
 10  1  1  0
 11  2  1  0
 12  9  1  0
 14  7  1  0
M  END
$$$$

     RDKit          3D

 13 13  0  0  0  0  0  0  0  0999 V2000
   38.6600   40.1810   21.9250 O   0  0  0  0  0  0  0  0  0  0  0  0
   36.1890   38.1750   19.8240 C   0  0  0  0  0  0  0  0  0  0  0  0
   37.0140   37.3860   20.3810 C   0  0  0  0  0  0  0  0  0  0  0  0
   36.7230   39.5970   24.0460 O   0  0  0  0  0  0  0  0  0  0  0  0
   37.1710   36.1690   20.7010 O   0  0  0  0  0  0  0  0  0  0  0  0
   38.8180   37.8440   22.5130 C   0  0  0  0  0  0  0  0  0  0  0  0
   37.4480   39.3970   21.7710 C   0  0  0  0  0  0  0  0  0  0  0  0
   39.6870   37.3180   21.3320 O   0  0  0  0  0  0  0  0  0  0  0  0
   37.2410   38.4670   23.0670 C   0  0  0  0  0  0  0  0  0  0  0  0
   37.7440   38.7350   20.3120 C   0  0  0  0  0  0  0  0  0  0  0  0
   36.1440   37.5020   22.9740 O   0  0  0  0  0  0  0  0  0  0  0  0
   35.0560   37.4960   22.2900 C   0  0  0  0  0  0  0  0  0  0  0  0
   35.4010   39.1440   20.0870 O   0  0  0  0  0  0  0  0  0  0  0  0
  2 13  1  0
  2 10  1  0
  2  3  1  0
  3  5  2  0
  6  9  1  0
  7  1  1  0
  7  9  1  0
  8  6  1  0
  9  4  1  0
 10  3  1  0
 10  7  1  0
 11  9  1  0
 12 11  1  0
M  END
$$$$

     RDKit          3D

 11 11  0  0  0  0  0  0  0  0999 V2000
   38.4800   37.2840   22.4830 C   0  0  0  0  0  0  0  0  0  0  0  0
   36.9970   39.9490   21.9090 O   0  0  0  0  0  0  0  0  0  0  0  0
   39.1600   38.0600   20.0130 O   0  0  0  0  0  0  0  0  0  0  0  0
   36.3800   37.0700   21.0690 C   0  0  0  0  0  0  0  0  0  0  0  0
   36.0120   37.9630   22.2040 C   0  0  0  0  0  0  0  0  0  0  0  0
   37.4110   37.9490   22.8870 N   0  0  0  0  0  0  0  0  0  0  0  0
   38.5650   36.9730   19.6380 C   0  0  0  0  0  0  0  0  0  0  0  0
   36.1990   39.3440   23.8510 O   0  0  0  0  0  0  0  0  0  0  0  0
   36.4870   39.1410   22.7900 C   0  0  0  0  0  0  0  0  0  0  0  0
   35.2670   36.0060   21.3400 C   0  0  0  0  0  0  0  0  0  0  0  0
   37.5250   36.3260   20.4550 C   0  0  0  0  0  0  0  0  0  0  0  0
  1  6  1  0
  2  9  1  0
  4 10  1  0
  5  4  1  0
  5  9  1  0
  5  6  1  0
  7  3  1  0
  7 11  1  0
  9  6  1  0
  9  8  1  0
 11  4  1  0
M  END
$$$$

     RDKit          3D

 21 20  0  0  0  0  0  0  0  0999 V2000
   39.6420   39.0470   25.3010 O   0  0  0  0  0  0  0  0  0  0  0  0
   39.5630   37.5920   23.4530 C   0  0  0  0  0  0  0  0  0  0  0  0
   38.0340   37.3110   23.5450 C   0  0  0  0  0  0  0  0  0  0  0  0
   34.5360   37.7890   21.1880 O   0  0  0  0  0  0  0  0  0  0  0  0
   35.9940   35.3110   25.1470 O   0  0  0  0  0  0  0  0  0  0  0  0
   37.3890   35.5930   25.2710 C   0  0  0  0  0  0  0  0  0  0  0  0
   38.0140   35.8120   23.8390 C   0  0  0  0  0  0  0  0  0  0  0  0
   40.1130   37.6630   22.0290 C   0  0  0  0  0  0  0  0  0  0  0  0
   38.0960   35.1580   22.5310 O   0  0  0  0  0  0  0  0  0  0  0  0
   37.9370   38.9710   18.1790 C   0  0  0  0  0  0  0  0  0  0  0  0
   36.6510   37.7850   22.9390 C   0  0  0  0  0  0  0  0  0  0  0  0
   33.9710   35.3690   21.1200 C   0  0  0  0  0  0  0  0  0  0  0  0
   32.9370   34.9610   21.7820 O   0  0  0  0  0  0  0  0  0  0  0  0
   38.6160   38.6420   19.4100 C   0  0  0  0  0  0  0  0  0  0  0  0
   35.7270   36.5620   22.7620 C   0  0  0  0  0  0  0  0  0  0  0  0
   39.8720   38.9200   24.1060 C   0  0  0  0  0  0  0  0  0  0  0  0
   37.6270   39.6380   21.4620 O   0  0  0  0  0  0  0  0  0  0  0  0
   39.9990   39.0820   21.4870 C   0  0  0  0  0  0  0  0  0  0  0  0
   34.4470   34.7950   20.0920 O   0  0  0  0  0  0  0  0  0  0  0  0
   38.7020   39.1460   20.7490 N   0  0  0  0  0  0  0  0  0  0  0  0
   34.7130   36.6980   21.6520 C   0  0  0  0  0  0  0  0  0  0  0  0
  2  8  1  0
  2  3  1  0
  2 16  1  0
  3 11  1  0
  3  7  1  0
  4 21  2  0
  5  6  1  0
  7  9  1  0
  7  6  1  0
 10 14  1  0
 12 21  1  0
 12 13  1  0
 14 20  1  0
 15 11  1  0
 16  1  2  0
 18  8  1  0
 19 12  2  0
 20 17  1  0
 20 18  1  0
 21 15  1  0
M  END
$$$$

     RDKit          3D

 14 13  0  0  0  0  0  0  0  0999 V2000
   38.8670   36.9350   22.3160 N   0  0  0  0  0  0  0  0  0  0  0  0
   37.3630   40.3610   22.3980 O   0  0  0  0  0  0  0  0  0  0  0  0
   34.5450   37.0320   19.0240 O   0  0  0  0  0  0  0  0  0  0  0  0
   34.6790   37.8100   21.1370 N   0  0  0  0  0  0  0  0  0  0  0  0
   38.2810   39.4640   22.7970 S   0  0  0  0  0  0  0  0  0  0  0  0
   36.0770   37.5500   21.5650 C   0  0  0  0  0  0  0  0  0  0  0  0
   33.8630   39.3140   17.9620 N   0  0  0  0  0  0  0  0  0  0  0  0
   34.1560   37.8530   19.8250 C   0  0  0  0  0  0  0  0  0  0  0  0
   36.3580   38.0840   22.6050 O   0  0  0  0  0  0  0  0  0  0  0  0
   38.8950   38.3340   21.7580 C   0  0  0  0  0  0  0  0  0  0  0  0
   38.2120   35.9600   21.3870 C   0  0  0  0  0  0  0  0  0  0  0  0
   39.4510   39.5790   23.7890 O   0  0  0  0  0  0  0  0  0  0  0  0
   36.8310   36.3930   20.8570 C   0  0  0  0  0  0  0  0  0  0  0  0
   33.3180   39.0650   19.3920 C   0  0  0  0  0  0  0  0  0  0  0  0
  3  8  2  0
  4  6  1  0
  5  2  2  0
  5 12  1  0
  6  9  2  0
  7 14  1  0
  8  4  1  0
 10  1  1  0
 10  5  1  0
 11  1  1  0
 13 11  1  0
 13  6  1  0
 14  8  1  0
M  END
$$$$

     RDKit          3D

  9  9  0  0  0  0  0  0  0  0999 V2000
   35.4430   38.5470   19.7350 Br  0  0  0  0  0  0  0  0  0  0  0  0
   36.7860   39.2380   23.5400 C   0  0  0  0  0  0  0  0  0  0  0  0
   38.4670   36.0900   23.2580 N   0  0  0  0  0  0  0  0  0  0  0  0
   37.5370   38.1500   23.8660 N   0  0  0  0  0  0  0  0  0  0  0  0
   36.9530   37.1020   21.6970 C   0  0  0  0  0  0  0  0  0  0  0  0
   36.1230   39.3770   22.3310 N   0  0  0  0  0  0  0  0  0  0  0  0
   36.9040   36.0450   20.8400 O   0  0  0  0  0  0  0  0  0  0  0  0
   37.6440   37.1110   22.9650 C   0  0  0  0  0  0  0  0  0  0  0  0
   36.1990   38.3330   21.4700 C   0  0  0  0  0  0  0  0  0  0  0  0
  1  9  1  0
  2  4  1  0
  5  8  1  0
  6  2  2  0
  7  5  1  0
  8  3  1  0
  8  4  2  0
  9  5  2  0
  9  6  1  0
M  END
$$$$

     RDKit          3D

 10 10  0  0  0  0  0  0  0  0999 V2000
   37.4400   39.8900   23.2590 C   0  0  0  0  0  0  0  0  0  0  0  0
   37.2870   36.8140   19.6970 O   0  0  0  0  0  0  0  0  0  0  0  0
   36.4120   40.6310   23.2870 O   0  0  0  0  0  0  0  0  0  0  0  0
   37.2980   38.5250   22.9070 C   0  0  0  0  0  0  0  0  0  0  0  0
   37.3560   37.4800   23.8500 C   0  0  0  0  0  0  0  0  0  0  0  0
   38.6130   40.2870   23.4880 O   0  0  0  0  0  0  0  0  0  0  0  0
   37.3340   36.1750   23.3930 C   0  0  0  0  0  0  0  0  0  0  0  0
   37.3110   35.9270   21.9970 C   0  0  0  0  0  0  0  0  0  0  0  0
   37.1010   38.2390   21.5470 C   0  0  0  0  0  0  0  0  0  0  0  0
   37.1920   36.9550   21.0380 C   0  0  0  0  0  0  0  0  0  0  0  0
  1  3  2  0
  1  6  1  0
  2 10  1  0
  4  1  1  0
  4  5  1  0
  7  5  2  0
  8  7  1  0
  9  4  2  0
 10  9  1  0
 10  8  2  0
M  END
$$$$
