
     RDKit          3D

 12 12  0  0  0  0  0  0  0  0999 V2000
   39.8520   38.2990   22.8190 C   0  0  0  0  0  0  0  0  0  0  0  0
   41.1470   37.8490   27.4180 C   0  0  0  0  0  0  0  0  0  0  0  0
   40.6950   37.0020   25.0910 C   0  0  0  0  0  0  0  0  0  0  0  0
   39.4180   38.8690   21.7460 N   0  0  0  0  0  0  0  0  0  0  0  0
   41.2650   38.3720   23.1490 N   0  0  0  0  0  0  0  0  0  0  0  0
   39.4250   36.8220   24.7220 C   0  0  0  0  0  0  0  0  0  0  0  0
   38.9890   37.6170   23.6940 N   0  0  0  0  0  0  0  0  0  0  0  0
   41.1450   36.6430   26.6040 C   0  0  0  0  0  0  0  0  0  0  0  0
   38.7360   36.1150   25.3900 O   0  0  0  0  0  0  0  0  0  0  0  0
   41.1040   35.5360   27.0090 O   0  0  0  0  0  0  0  0  0  0  0  0
   41.7000   37.7750   24.3440 C   0  0  0  0  0  0  0  0  0  0  0  0
   43.1170   38.0030   24.6980 C   0  0  0  0  0  0  0  0  0  0  0  0
  1  5  2  0
  1  7  1  0
  3  8  1  0
  4  1  1  0
  5 11  1  0
  6  3  1  0
  6  9  2  0
  7  6  1  0
  8 10  2  0
  8  2  1  0
 11 12  1  0
 11  3  2  0
M  END
$$$$

     RDKit          3D

 20 20  0  0  0  0  0  0  0  0999 V2000
   35.1560   36.6070   20.4590 N   0  0  0  0  0  0  0  0  0  0  0  0
   39.1690   37.6710   23.5950 C   0  0  0  0  0  0  0  0  0  0  0  0
   40.3040   37.5600   27.2210 C   0  0  0  0  0  0  0  0  0  0  0  0
   40.3900   37.1270   25.7340 C   0  0  0  0  0  0  0  0  0  0  0  0
   38.3930   37.7650   22.5590 O   0  0  0  0  0  0  0  0  0  0  0  0
   36.7420   33.5160   22.7120 C   0  0  0  0  0  0  0  0  0  0  0  0
   39.2640   37.8700   25.0000 C   0  0  0  0  0  0  0  0  0  0  0  0
   36.8840   34.9000   23.0130 C   0  0  0  0  0  0  0  0  0  0  0  0
   38.8510   35.1110   24.0170 O   0  0  0  0  0  0  0  0  0  0  0  0
   42.9760   36.6080   29.2420 C   0  0  0  0  0  0  0  0  0  0  0  0
   35.9010   35.7680   23.1760 N   0  0  0  0  0  0  0  0  0  0  0  0
   44.2910   37.1290   28.9010 C   0  0  0  0  0  0  0  0  0  0  0  0
   35.7750   37.0550   21.3050 C   0  0  0  0  0  0  0  0  0  0  0  0
   41.9410   37.4360   26.4650 S   0  0  0  0  0  0  0  0  0  0  0  0
   42.5000   35.8720   27.1550 C   0  0  0  0  0  0  0  0  0  0  0  0
   37.8770   36.4920   22.1450 C   0  0  0  0  0  0  0  0  0  0  0  0
   37.9460   35.4780   23.1140 C   0  0  0  0  0  0  0  0  0  0  0  0
   35.9490   37.4870   22.7500 O   0  0  0  0  0  0  0  0  0  0  0  0
   42.3570   35.8290   28.5890 C   0  0  0  0  0  0  0  0  0  0  0  0
   41.2540   34.8520   29.3970 C   0  0  0  0  0  0  0  0  0  0  0  0
  1 13  2  0
  2  7  2  3
  4  7  1  0
  4 14  1  0
  4  3  1  0
  5  2  1  0
  6  8  1  0
  8 17  1  0
  8 11  2  3
 12 10  1  0
 13 18  1  0
 14 15  1  0
 14  3  1  0
 15 19  1  0
 16  5  1  0
 16 17  1  0
 17  9  1  0
 18 11  1  0
 19 10  1  0
 19 20  1  0
M  END
$$$$

     RDKit          3D

  7  6  0  0  0  0  0  0  0  0999 V2000
   40.0730   38.1990   27.2460 O   0  0  0  0  0  0  0  0  0  0  0  0
   40.9390   37.2310   27.7440 C   0  0  0  0  0  0  0  0  0  0  0  0
   39.4430   35.4950   24.1960 O   0  0  0  0  0  0  0  0  0  0  0  0
   41.3890   36.3430   25.2740 C   0  0  0  0  0  0  0  0  0  0  0  0
   43.2080   36.5450   26.9600 N   0  0  0  0  0  0  0  0  0  0  0  0
   41.8750   36.7640   26.6420 C   0  0  0  0  0  0  0  0  0  0  0  0
   39.9580   36.2420   25.0570 C   0  0  0  0  0  0  0  0  0  0  0  0
  1  2  1  0
  3  7  2  0
  4  6  2  3
  6  5  1  0
  6  2  1  0
  7  4  1  0
M  END
$$$$

     RDKit          3D

 15 16  0  0  0  0  0  0  0  0999 V2000
   41.0430   37.9340   27.3610 C   0  0  0  0  0  0  0  0  0  0  0  0
   39.6620   35.2070   27.2980 O   0  0  0  0  0  0  0  0  0  0  0  0
   41.1650   37.3520   23.9510 C   0  0  0  0  0  0  0  0  0  0  0  0
   41.9570   36.8100   27.8260 C   0  0  0  0  0  0  0  0  0  0  0  0
   40.0780   37.2630   26.3080 C   0  0  0  0  0  0  0  0  0  0  0  0
   38.5270   36.4460   23.9840 S   0  0  0  0  0  0  0  0  0  0  0  0
   43.7390   37.1010   23.6350 C   0  0  0  0  0  0  0  0  0  0  0  0
   43.8490   38.0980   26.4890 O   0  0  0  0  0  0  0  0  0  0  0  0
   41.9020   35.7460   26.7660 C   0  0  0  0  0  0  0  0  0  0  0  0
   42.7240   35.9700   25.5990 O   0  0  0  0  0  0  0  0  0  0  0  0
   42.5690   37.1370   24.6940 C   0  0  0  0  0  0  0  0  0  0  0  0
   40.4290   35.7620   26.2870 C   0  0  0  0  0  0  0  0  0  0  0  0
   41.2190   38.6710   23.3580 O   0  0  0  0  0  0  0  0  0  0  0  0
   42.8240   38.4240   25.6120 C   0  0  0  0  0  0  0  0  0  0  0  0
   39.8070   37.5390   24.7850 C   0  0  0  0  0  0  0  0  0  0  0  0
  1  4  1  0
  3 13  1  0
  3 11  1  0
  3 15  1  0
  5  1  1  0
  9  4  1  0
 10  9  1  0
 11  7  1  0
 11 10  1  0
 11 14  1  0
 12  5  1  0
 12  9  1  0
 12  2  1  0
 14  8  1  0
 15  6  1  0
 15  5  1  0
M  END
$$$$

     RDKit          3D

 12 12  0  0  0  0  0  0  0  0999 V2000
   39.3800   35.4430   24.5920 C   0  0  0  0  0  0  0  0  0  0  0  0
   41.9080   36.9660   24.3330 C   0  0  0  0  0  0  0  0  0  0  0  0
   42.2520   35.6140   28.5450 C   0  0  0  0  0  0  0  0  0  0  0  0
   39.7110   37.2120   26.2370 C   0  0  0  0  0  0  0  0  0  0  0  0
   40.6840   37.5210   23.9730 C   0  0  0  0  0  0  0  0  0  0  0  0
   40.6100   38.4160   23.0790 O   0  0  0  0  0  0  0  0  0  0  0  0
   43.4210   36.9530   23.1460 Br  0  0  0  0  0  0  0  0  0  0  0  0
   39.4940   36.9450   24.7420 C   0  0  0  0  0  0  0  0  0  0  0  0
   41.2590   36.6140   28.0440 O   0  0  0  0  0  0  0  0  0  0  0  0
   42.0610   36.5760   25.6590 C   0  0  0  0  0  0  0  0  0  0  0  0
   41.0690   36.7780   26.6710 C   0  0  0  0  0  0  0  0  0  0  0  0
   37.9750   37.5610   24.0880 Br  0  0  0  0  0  0  0  0  0  0  0  0
  2 10  2  0
  4 11  1  0
  5  2  1  0
  5  8  1  0
  6  5  2  0
  7  2  1  0
  8  1  1  0
  8  4  1  0
  9  3  1  0
 10 11  1  0
 11  9  1  0
 12  8  1  0
M  END
$$$$

     RDKit          3D

  6  5  0  0  0  0  0  0  0  0999 V2000
   41.2330   39.0020   26.7990 C   0  0  0  0  0  0  0  0  0  0  0  0
   40.4300   36.3460   26.8060 P   0  0  0  0  0  0  0  0  0  0  0  0
   41.4180   35.6330   27.4830 O   0  0  0  0  0  0  0  0  0  0  0  0
   41.2040   37.7040   25.9820 C   0  0  0  0  0  0  0  0  0  0  0  0
   39.6670   35.4660   25.8070 O   0  0  0  0  0  0  0  0  0  0  0  0
   39.3970   37.3050   27.3080 F   0  0  0  0  0  0  0  0  0  0  0  0
  2  5  2  0
  2  6  1  0
  2  3  1  0
  4  1  1  0
  4  2  1  0
M  END
$$$$

     RDKit          3D

  6  5  0  0  0  0  0  0  0  0999 V2000
   38.5480   37.2750   24.2990 C   0  0  0  0  0  0  0  0  0  0  0  0
   40.4670   37.4920   26.0400 C   0  0  0  0  0  0  0  0  0  0  0  0
   39.1840   36.8200   25.6200 C   0  0  0  0  0  0  0  0  0  0  0  0
   42.3850   36.7940   27.2200 O   0  0  0  0  0  0  0  0  0  0  0  0
   41.6590   36.5570   26.2610 C   0  0  0  0  0  0  0  0  0  0  0  0
   42.0340   35.6860   25.4400 O   0  0  0  0  0  0  0  0  0  0  0  0
  1  3  1  0
  2  5  1  0
  3  2  1  0
  5  4  1  0
  6  5  2  0
M  END
$$$$

     RDKit          3D

 15 15  0  0  0  0  0  0  0  0999 V2000
   41.1530   36.2150   27.0460 N   0  0  0  0  0  0  0  0  0  0  0  0
   39.1990   35.8700   25.3220 C   0  0  0  0  0  0  0  0  0  0  0  0
   42.6290   38.6160   23.6400 O   0  0  0  0  0  0  0  0  0  0  0  0
   40.5250   36.1500   25.5060 C   0  0  0  0  0  0  0  0  0  0  0  0
   39.7700   37.6390   23.4740 C   0  0  0  0  0  0  0  0  0  0  0  0
   42.3940   36.7910   26.4750 C   0  0  0  0  0  0  0  0  0  0  0  0
   41.4920   38.3590   22.7720 C   0  0  0  0  0  0  0  0  0  0  0  0
   42.5490   37.7000   22.4580 C   0  0  0  0  0  0  0  0  0  0  0  0
   40.2140   39.0220   23.0420 C   0  0  0  0  0  0  0  0  0  0  0  0
   39.2860   37.6480   24.6140 O   0  0  0  0  0  0  0  0  0  0  0  0
   39.9950   36.6170   23.0080 O   0  0  0  0  0  0  0  0  0  0  0  0
   38.5420   38.0580   24.9520 C   0  0  0  0  0  0  0  0  0  0  0  0
   38.5080   36.6650   26.1920 O   0  0  0  0  0  0  0  0  0  0  0  0
   42.1070   38.1550   26.8430 C   0  0  0  0  0  0  0  0  0  0  0  0
   43.4960   35.9180   26.8170 N   0  0  0  0  0  0  0  0  0  0  0  0
  2  4  1  0
  2 13  1  0
  4  1  1  0
  5 10  1  0
  6 15  1  0
  6 14  1  0
  6  1  1  0
  7  9  1  0
  7  3  1  0
  8  7  1  0
  8  3  1  0
  9  5  1  0
 10 12  1  0
 11  5  2  0
 12 13  1  0
M  END
$$$$

     RDKit          3D

 21 22  0  0  0  0  0  0  0  0999 V2000
   40.7840   38.8240   22.7470 C   0  0  0  0  0  0  0  0  0  0  0  0
   35.5690   38.3770   22.3660 O   0  0  0  0  0  0  0  0  0  0  0  0
   39.0140   37.2070   23.0310 C   0  0  0  0  0  0  0  0  0  0  0  0
   38.3170   36.1790   23.7140 C   0  0  0  0  0  0  0  0  0  0  0  0
   37.0260   36.5060   23.4410 C   0  0  0  0  0  0  0  0  0  0  0  0
   36.8140   37.7120   22.7930 C   0  0  0  0  0  0  0  0  0  0  0  0
   38.0640   38.1710   22.6140 C   0  0  0  0  0  0  0  0  0  0  0  0
   38.5390   34.9290   24.3060 O   0  0  0  0  0  0  0  0  0  0  0  0
   40.8930   36.4700   24.0370 O   0  0  0  0  0  0  0  0  0  0  0  0
   42.9400   36.1030   26.3810 O   0  0  0  0  0  0  0  0  0  0  0  0
   42.6340   39.0560   27.6270 C   0  0  0  0  0  0  0  0  0  0  0  0
   43.2690   39.1710   29.3500 S   0  0  0  0  0  0  0  0  0  0  0  0
   36.2610   35.5020   23.4510 O   0  0  0  0  0  0  0  0  0  0  0  0
   42.4760   36.7470   25.1830 C   0  0  0  0  0  0  0  0  0  0  0  0
   40.7580   37.2890   27.7400 C   0  0  0  0  0  0  0  0  0  0  0  0
   40.0690   38.4190   28.0700 O   0  0  0  0  0  0  0  0  0  0  0  0
   34.4810   38.0770   23.1480 C   0  0  0  0  0  0  0  0  0  0  0  0
   40.1170   36.8330   26.4310 C   0  0  0  0  0  0  0  0  0  0  0  0
   41.0280   37.1470   25.2370 C   0  0  0  0  0  0  0  0  0  0  0  0
   41.3210   38.7830   27.5660 C   0  0  0  0  0  0  0  0  0  0  0  0
   40.4320   37.3470   22.9890 C   0  0  0  0  0  0  0  0  0  0  0  0
  2  6  1  0
  2 17  1  0
  3 21  1  0
  3  4  1  0
  4  8  1  0
  5 13  2  0
  5  4  1  0
  6  5  1  0
  7  6  2  0
  7  3  1  0
  9 19  1  0
 11 12  1  0
 14 10  1  0
 15 18  1  0
 15 16  1  0
 19 14  1  0
 19 18  1  0
 20 11  1  0
 20 15  1  0
 20 16  1  0
 21  1  1  0
 21  9  1  0
M  END
$$$$

     RDKit          3D

  7  6  0  0  0  0  0  0  0  0999 V2000
   42.1610   35.8570   25.9340 N   0  0  0  0  0  0  0  0  0  0  0  0
   41.3260   35.8900   27.8930 O   0  0  0  0  0  0  0  0  0  0  0  0
   40.1730   38.5540   24.0810 O   0  0  0  0  0  0  0  0  0  0  0  0
   41.0440   38.2240   25.0430 C   0  0  0  0  0  0  0  0  0  0  0  0
   40.5840   38.4280   27.4060 O   0  0  0  0  0  0  0  0  0  0  0  0
   40.3000   37.5840   26.3000 C   0  0  0  0  0  0  0  0  0  0  0  0
   40.8850   36.1550   26.5810 C   0  0  0  0  0  0  0  0  0  0  0  0
  3  4  1  0
  4  6  1  0
  6  7  1  0
  6  5  1  0
  7  1  1  0
  7  2  1  0
M  END
$$$$

     RDKit          3D

 25 27  0  0  0  0  0  0  0  0999 V2000
   38.8170   38.7990   23.3460 O   0  0  0  0  0  0  0  0  0  0  0  0
   32.7030   39.0690   23.4540 C   0  0  0  0  0  0  0  0  0  0  0  0
   37.6130   36.7240   23.7510 C   0  0  0  0  0  0  0  0  0  0  0  0
   37.9910   34.9540   23.8870 S   0  0  0  0  0  0  0  0  0  0  0  0
   40.4230   37.0130   25.9240 C   0  0  0  0  0  0  0  0  0  0  0  0
   40.1750   36.2090   24.4930 C   0  0  0  0  0  0  0  0  0  0  0  0
   34.0710   38.7640   23.5120 C   0  0  0  0  0  0  0  0  0  0  0  0
   41.4820   36.2860   26.6340 N   0  0  0  0  0  0  0  0  0  0  0  0
   32.5450   38.0310   21.3580 C   0  0  0  0  0  0  0  0  0  0  0  0
   36.4660   36.9630   23.0620 N   0  0  0  0  0  0  0  0  0  0  0  0
   40.8840   35.3180   27.9400 C   0  0  0  0  0  0  0  0  0  0  0  0
   36.1590   38.1130   22.2830 C   0  0  0  0  0  0  0  0  0  0  0  0
   39.1230   35.4200   25.2180 C   0  0  0  0  0  0  0  0  0  0  0  0
   38.7290   37.5280   23.2430 C   0  0  0  0  0  0  0  0  0  0  0  0
   42.8160   37.0130   26.9430 C   0  0  0  0  0  0  0  0  0  0  0  0
   34.7150   38.1220   22.4510 C   0  0  0  0  0  0  0  0  0  0  0  0
   41.5150   35.6780   29.2990 C   0  0  0  0  0  0  0  0  0  0  0  0
   40.1750   38.1380   26.1720 O   0  0  0  0  0  0  0  0  0  0  0  0
   43.7130   36.3750   28.0580 C   0  0  0  0  0  0  0  0  0  0  0  0
   42.9460   36.2110   29.3480 N   0  0  0  0  0  0  0  0  0  0  0  0
   33.9100   37.6190   21.4310 C   0  0  0  0  0  0  0  0  0  0  0  0
   39.7710   35.0460   27.8130 O   0  0  0  0  0  0  0  0  0  0  0  0
   39.8180   36.5580   22.9590 C   0  0  0  0  0  0  0  0  0  0  0  0
   32.0090   38.8520   22.2900 C   0  0  0  0  0  0  0  0  0  0  0  0
   44.9030   37.1400   28.2990 O   0  0  0  0  0  0  0  0  0  0  0  0
  2  7  1  0
  3 10  1  0
  3  4  1  0
  4 13  1  0
  5 18  2  0
  5  8  1  0
  6 13  1  0
  6  5  1  0
  8 15  1  0
  8 11  1  0
  9 21  2  0
  9 24  1  0
 11 17  1  0
 12 16  1  0
 12 10  1  0
 14  1  2  0
 14  3  1  0
 15 19  1  0
 16  7  2  0
 17 20  2  0
 19 25  1  0
 19 20  1  0
 21 16  1  0
 22 11  2  0
 23 14  1  0
 23  6  1  0
 24  2  2  0
M  END
$$$$

     RDKit          3D

 17 17  0  0  0  0  0  0  0  0999 V2000
   40.4730   35.0250   28.0220 C   0  0  0  0  0  0  0  0  0  0  0  0
   42.2520   36.3660   27.6380 O   0  0  0  0  0  0  0  0  0  0  0  0
   40.8740   38.8870   22.8980 O   0  0  0  0  0  0  0  0  0  0  0  0
   37.2900   36.9980   22.9530 C   0  0  0  0  0  0  0  0  0  0  0  0
   43.8490   37.4860   26.6720 O   0  0  0  0  0  0  0  0  0  0  0  0
   41.7800   37.8040   24.5490 O   0  0  0  0  0  0  0  0  0  0  0  0
   39.5950   36.2020   24.1150 C   0  0  0  0  0  0  0  0  0  0  0  0
   40.6740   38.4100   23.9170 C   0  0  0  0  0  0  0  0  0  0  0  0
   37.3850   35.4900   23.1120 O   0  0  0  0  0  0  0  0  0  0  0  0
   40.6530   36.2780   25.8930 N   0  0  0  0  0  0  0  0  0  0  0  0
   41.1740   36.0310   27.2110 C   0  0  0  0  0  0  0  0  0  0  0  0
   43.4970   36.7940   27.6300 C   0  0  0  0  0  0  0  0  0  0  0  0
   38.2080   38.0550   23.5310 O   0  0  0  0  0  0  0  0  0  0  0  0
   39.4320   35.6690   25.5060 C   0  0  0  0  0  0  0  0  0  0  0  0
   39.3720   37.6160   24.2200 C   0  0  0  0  0  0  0  0  0  0  0  0
   41.7140   36.4070   24.7890 C   0  0  0  0  0  0  0  0  0  0  0  0
   44.2670   36.3490   28.6070 N   0  0  0  0  0  0  0  0  0  0  0  0
  3  8  2  0
  4  9  1  0
  4 13  1  0
  5 12  2  0
  6 16  1  0
  7 15  1  0
  7 14  1  0
  8 15  1  0
  8  6  1  0
 10 11  1  0
 11  2  1  0
 11  1  1  0
 12  2  1  0
 12 17  1  0
 14 10  1  0
 15 13  1  0
 16 10  1  0
M  END
$$$$

     RDKit          3D

 20 20  0  0  0  0  0  0  0  0999 V2000
   41.9580   36.6320   28.5170 N   0  0  0  0  0  0  0  0  0  0  0  0
   41.4360   38.4380   25.1450 N   0  0  0  0  0  0  0  0  0  0  0  0
   38.7800   35.9910   24.0930 O   0  0  0  0  0  0  0  0  0  0  0  0
   40.0950   36.8970   22.3540 C   0  0  0  0  0  0  0  0  0  0  0  0
   41.5240   36.5810   21.9490 C   0  0  0  0  0  0  0  0  0  0  0  0
   41.8150   39.5390   27.3100 C   0  0  0  0  0  0  0  0  0  0  0  0
   44.4190   37.9320   27.8650 Cl  0  0  0  0  0  0  0  0  0  0  0  0
   41.3340   36.8340   27.1330 C   0  0  0  0  0  0  0  0  0  0  0  0
   39.9340   36.8510   26.3920 C   0  0  0  0  0  0  0  0  0  0  0  0
   42.7350   40.3840   27.2160 O   0  0  0  0  0  0  0  0  0  0  0  0
   43.4210   36.6870   28.6500 C   0  0  0  0  0  0  0  0  0  0  0  0
   41.5070   35.2700   28.9290 C   0  0  0  0  0  0  0  0  0  0  0  0
   40.0080   35.0360   28.9070 C   0  0  0  0  0  0  0  0  0  0  0  0
   39.7270   36.7790   23.8800 C   0  0  0  0  0  0  0  0  0  0  0  0
   39.7050   38.3010   21.8920 C   0  0  0  0  0  0  0  0  0  0  0  0
   40.1310   37.6620   25.0950 C   0  0  0  0  0  0  0  0  0  0  0  0
   40.8020   39.7510   27.9510 O   0  0  0  0  0  0  0  0  0  0  0  0
   41.9100   38.1940   26.5720 C   0  0  0  0  0  0  0  0  0  0  0  0
   39.1470   35.9050   21.6710 C   0  0  0  0  0  0  0  0  0  0  0  0
   39.7020   33.9410   27.9920 N   0  0  0  0  0  0  0  0  0  0  0  0
  1 11  1  0
  1 12  1  0
  2 18  1  0
  4 14  1  0
  5  4  1  0
  6 17  1  0
  7 11  1  0
  8  1  1  0
  9  8  1  0
 10  6  2  0
 13 12  1  0
 14  3  2  0
 15  4  1  0
 16 14  1  0
 16  2  1  0
 16  9  1  0
 18  8  1  0
 18  6  1  0
 19  4  1  0
 20 13  1  0
M  END
$$$$

     RDKit          3D

  7  6  0  0  0  0  0  0  0  0999 V2000
   40.0540   35.8200   24.5940 O   0  0  0  0  0  0  0  0  0  0  0  0
   37.8310   38.5600   22.3230 O   0  0  0  0  0  0  0  0  0  0  0  0
   39.9360   36.9550   24.7380 C   0  0  0  0  0  0  0  0  0  0  0  0
   39.1940   38.2980   23.0020 C   0  0  0  0  0  0  0  0  0  0  0  0
   42.3350   37.1980   24.3220 C   0  0  0  0  0  0  0  0  0  0  0  0
   41.3440   37.8370   24.7780 C   0  0  0  0  0  0  0  0  0  0  0  0
   38.7630   37.7030   24.3050 C   0  0  0  0  0  0  0  0  0  0  0  0
  1  3  2  0
  2  4  1  0
  3  6  1  0
  4  7  1  0
  5  6  1  0
  7  3  1  0
M  END
$$$$

     RDKit          3D

  6  5  0  0  0  0  0  0  0  0999 V2000
   41.9110   37.8470   24.9480 C   0  0  0  0  0  0  0  0  0  0  0  0
   40.9620   36.7870   26.9430 C   0  0  0  0  0  0  0  0  0  0  0  0
   42.4370   35.6190   25.6860 O   0  0  0  0  0  0  0  0  0  0  0  0
   39.5650   36.7310   26.7500 C   0  0  0  0  0  0  0  0  0  0  0  0
   41.7800   36.7030   25.8540 N   0  0  0  0  0  0  0  0  0  0  0  0
   41.5410   36.9380   28.0370 O   0  0  0  0  0  0  0  0  0  0  0  0
  1  5  1  0
  2  6  2  0
  3  5  1  0
  4  2  1  0
  5  2  1  0
M  END
$$$$

     RDKit          3D

 13 12  0  0  0  0  0  0  0  0999 V2000
   40.5310   36.4550   26.9550 N   0  0  0  0  0  0  0  0  0  0  0  0
   39.2140   35.0950   23.7620 O   0  0  0  0  0  0  0  0  0  0  0  0
   40.3970   37.0770   24.7500 C   0  0  0  0  0  0  0  0  0  0  0  0
   40.2720   37.6450   26.1980 C   0  0  0  0  0  0  0  0  0  0  0  0
   40.6230   38.1760   24.0190 O   0  0  0  0  0  0  0  0  0  0  0  0
   42.8160   37.7870   27.3890 C   0  0  0  0  0  0  0  0  0  0  0  0
   43.5230   36.9810   25.2740 O   0  0  0  0  0  0  0  0  0  0  0  0
   39.0750   36.4100   24.3820 C   0  0  0  0  0  0  0  0  0  0  0  0
   41.9050   36.4910   27.5680 C   0  0  0  0  0  0  0  0  0  0  0  0
   43.2280   37.9980   25.9390 C   0  0  0  0  0  0  0  0  0  0  0  0
   43.3740   39.1820   25.5230 O   0  0  0  0  0  0  0  0  0  0  0  0
   44.2180   37.6050   27.9680 C   0  0  0  0  0  0  0  0  0  0  0  0
   39.7870   35.3650   26.7740 N   0  0  0  0  0  0  0  0  0  0  0  0
  1  9  1  0
  2  8  1  0
  3  5  1  0
  3  4  1  0
  4  1  1  0
  6  9  1  0
  6 12  1  0
  7 10  2  0
  8  3  1  0
 10  6  1  0
 11 10  1  0
 13  1  1  0
M  END
$$$$

     RDKit          3D

 13 12  0  0  0  0  0  0  0  0999 V2000
   40.2410   37.3990   26.1770 C   0  0  0  0  0  0  0  0  0  0  0  0
   44.1530   37.3770   25.9160 C   0  0  0  0  0  0  0  0  0  0  0  0
   42.0500   36.1550   25.1090 C   0  0  0  0  0  0  0  0  0  0  0  0
   39.8220   35.5880   24.5380 O   0  0  0  0  0  0  0  0  0  0  0  0
   46.0380   36.3500   25.8080 O   0  0  0  0  0  0  0  0  0  0  0  0
   43.1040   37.0180   24.9340 N   0  0  0  0  0  0  0  0  0  0  0  0
   45.0510   36.3520   26.5040 C   0  0  0  0  0  0  0  0  0  0  0  0
   38.7440   37.7400   26.1790 C   0  0  0  0  0  0  0  0  0  0  0  0
   43.3030   37.8760   27.1840 N   0  0  0  0  0  0  0  0  0  0  0  0
   43.3650   37.7060   23.7080 C   0  0  0  0  0  0  0  0  0  0  0  0
   40.6690   36.7090   24.8770 C   0  0  0  0  0  0  0  0  0  0  0  0
   42.3750   36.9740   22.8240 O   0  0  0  0  0  0  0  0  0  0  0  0
   44.9250   35.7560   27.5640 O   0  0  0  0  0  0  0  0  0  0  0  0
  1  8  1  0
  2  7  1  0
  2  9  1  0
  5  7  2  0
  6  3  1  0
  6  2  1  0
  7 13  1  0
 10  6  1  0
 11  4  1  0
 11  3  1  0
 11  1  1  0
 12 10  1  0
M  END
$$$$

     RDKit          3D

 10  9  0  0  0  0  0  0  0  0999 V2000
   40.7920   36.7030   27.9450 N   0  0  0  0  0  0  0  0  0  0  0  0
   41.9080   37.0930   22.7960 C   0  0  0  0  0  0  0  0  0  0  0  0
   42.0760   38.4310   22.1040 N   0  0  0  0  0  0  0  0  0  0  0  0
   41.9110   36.1920   24.9280 C   0  0  0  0  0  0  0  0  0  0  0  0
   41.3190   37.3210   24.0780 C   0  0  0  0  0  0  0  0  0  0  0  0
   40.5440   38.4520   26.5700 O   0  0  0  0  0  0  0  0  0  0  0  0
   41.0420   37.3820   26.9660 C   0  0  0  0  0  0  0  0  0  0  0  0
   41.0250   35.1240   24.8520 O   0  0  0  0  0  0  0  0  0  0  0  0
   40.5200   38.2890   24.2170 O   0  0  0  0  0  0  0  0  0  0  0  0
   42.1280   36.6700   26.2070 C   0  0  0  0  0  0  0  0  0  0  0  0
  2  5  1  0
  3  2  1  0
  4  8  1  0
  4 10  1  0
  5  9  2  0
  5  4  1  0
  6  7  2  0
  7  1  1  0
 10  7  1  0
M  END
$$$$

     RDKit          3D

 14 14  0  0  0  0  0  0  0  0999 V2000
   41.6880   37.2580   27.6490 C   0  0  0  0  0  0  0  0  0  0  0  0
   41.1610   37.6730   25.2640 S   0  0  0  0  0  0  0  0  0  0  0  0
   35.6870   37.4390   23.3710 C   0  0  0  0  0  0  0  0  0  0  0  0
   39.9550   36.9440   24.4520 C   0  0  0  0  0  0  0  0  0  0  0  0
   40.8790   35.3610   26.8020 N   0  0  0  0  0  0  0  0  0  0  0  0
   37.8670   36.7460   23.4550 C   0  0  0  0  0  0  0  0  0  0  0  0
   40.7650   37.7820   26.6680 C   0  0  0  0  0  0  0  0  0  0  0  0
   39.2030   36.1070   25.5630 N   0  0  0  0  0  0  0  0  0  0  0  0
   37.7300   37.7920   24.1360 N   0  0  0  0  0  0  0  0  0  0  0  0
   39.8540   35.9040   26.3420 C   0  0  0  0  0  0  0  0  0  0  0  0
   36.4370   38.2920   23.9490 C   0  0  0  0  0  0  0  0  0  0  0  0
   42.4520   35.5630   28.8670 O   0  0  0  0  0  0  0  0  0  0  0  0
   39.6840   36.5640   22.8570 S   0  0  0  0  0  0  0  0  0  0  0  0
   41.3320   35.6480   28.1020 C   0  0  0  0  0  0  0  0  0  0  0  0
  1 14  1  0
  2  7  1  0
  3 11  1  0
  4 13  1  0
  4  2  1  0
  4  8  1  0
  5 14  1  0
  6  9  1  0
  7  1  1  0
  8 10  1  0
 10  5  2  0
 11  9  1  0
 13  6  1  0
 14 12  1  0
M  END
$$$$

     RDKit          3D

 19 19  0  0  0  0  0  0  0  0999 V2000
   40.5950   35.7050   25.1850 C   0  0  0  0  0  0  0  0  0  0  0  0
   35.5200   33.0870   28.9580 C   0  0  0  0  0  0  0  0  0  0  0  0
   39.6140   34.2410   28.1110 C   0  0  0  0  0  0  0  0  0  0  0  0
   34.7440   32.0730   28.1610 O   0  0  0  0  0  0  0  0  0  0  0  0
   38.9480   34.5570   29.1030 C   0  0  0  0  0  0  0  0  0  0  0  0
   40.7470   35.9830   26.2050 C   0  0  0  0  0  0  0  0  0  0  0  0
   37.2330   37.4180   25.0150 C   0  0  0  0  0  0  0  0  0  0  0  0
   34.8680   37.8500   24.9350 C   0  0  0  0  0  0  0  0  0  0  0  0
   37.3820   34.3430   28.9390 C   0  0  0  0  0  0  0  0  0  0  0  0
   40.7780   35.3790   27.6800 C   0  0  0  0  0  0  0  0  0  0  0  0
   38.7900   37.6790   27.0890 C   0  0  0  0  0  0  0  0  0  0  0  0
   35.9490   37.3270   25.7630 C   0  0  0  0  0  0  0  0  0  0  0  0
   39.1970   36.1790   24.9630 C   0  0  0  0  0  0  0  0  0  0  0  0
   38.4190   37.1430   25.7260 N   0  0  0  0  0  0  0  0  0  0  0  0
   37.4450   37.9160   23.7330 C   0  0  0  0  0  0  0  0  0  0  0  0
   38.5780   34.9440   24.6370 O   0  0  0  0  0  0  0  0  0  0  0  0
   35.0060   38.3910   23.5860 C   0  0  0  0  0  0  0  0  0  0  0  0
   36.5070   33.8980   29.8920 C   0  0  0  0  0  0  0  0  0  0  0  0
   36.2180   38.4060   22.9730 C   0  0  0  0  0  0  0  0  0  0  0  0
  1  6  1  0
  2 18  1  0
  3  5  1  0
  4  2  1  0
  6 10  1  0
  7 14  1  0
  7 12  1  0
  8 12  2  0
  9  5  1  0
  9 18  1  0
 10  3  1  0
 13  1  1  0
 13 14  1  0
 14 11  1  0
 15  7  2  0
 16 13  2  0
 17  8  1  0
 19 17  2  0
 19 15  1  0
M  END
$$$$
