
     RDKit          3D

 14 13  0  0  0  0  0  0  0  0999 V2000
   42.3490   40.3820   26.9490 O   0  0  0  0  0  0  0  0  0  0  0  0
   44.6090   40.1750   31.6310 O   0  0  0  0  0  0  0  0  0  0  0  0
   41.4750   38.4200   30.3380 C   0  0  0  0  0  0  0  0  0  0  0  0
   42.3450   40.5420   32.2400 O   0  0  0  0  0  0  0  0  0  0  0  0
   43.2150   38.2050   32.5500 O   0  0  0  0  0  0  0  0  0  0  0  0
   41.1420   37.4030   29.4560 O   0  0  0  0  0  0  0  0  0  0  0  0
   43.1780   39.3930   31.6980 P   0  0  0  0  0  0  0  0  0  0  0  0
   41.0540   40.1450   28.9680 C   0  0  0  0  0  0  0  0  0  0  0  0
   41.8140   39.4510   27.8920 C   0  0  0  0  0  0  0  0  0  0  0  0
   39.3710   39.7280   27.2720 O   0  0  0  0  0  0  0  0  0  0  0  0
   40.9490   39.6800   30.1840 O   0  0  0  0  0  0  0  0  0  0  0  0
   40.9210   38.2730   26.0340 O   0  0  0  0  0  0  0  0  0  0  0  0
   42.8500   38.6570   30.2910 O   0  0  0  0  0  0  0  0  0  0  0  0
   40.5730   38.9050   27.2430 C   0  0  0  0  0  0  0  0  0  0  0  0
  2  7  2  0
  3  6  1  0
  7  4  1  0
  7  5  1  0
  8 11  1  0
  9  1  1  0
  9  8  1  0
 11  3  1  0
 12 14  2  0
 13  3  1  0
 13  7  1  0
 14 10  1  0
 14  9  1  0
M  END
$$$$

     RDKit          3D

  8  7  0  0  0  0  0  0  0  0999 V2000
   41.5930   39.9180   31.7850 O   0  0  0  0  0  0  0  0  0  0  0  0
   45.1950   37.7600   32.4390 O   0  0  0  0  0  0  0  0  0  0  0  0
   43.9780   38.2590   32.8510 C   0  0  0  0  0  0  0  0  0  0  0  0
   43.0390   38.0160   31.6320 C   0  0  0  0  0  0  0  0  0  0  0  0
   42.7210   39.3620   31.0550 C   0  0  0  0  0  0  0  0  0  0  0  0
   42.6390   39.3470   29.5620 C   0  0  0  0  0  0  0  0  0  0  0  0
   42.7820   36.9090   31.2230 O   0  0  0  0  0  0  0  0  0  0  0  0
   41.9490   38.2630   29.0200 O   0  0  0  0  0  0  0  0  0  0  0  0
  2  3  1  0
  4  3  1  0
  5  4  1  0
  5  1  1  0
  6  5  1  0
  7  4  2  0
  8  6  1  0
M  END
$$$$

     RDKit          3D

  8  7  0  0  0  0  0  0  0  0999 V2000
   42.8850   36.9330   31.0460 N   0  0  0  0  0  0  0  0  0  0  0  0
   43.3070   39.0740   31.8940 C   0  0  0  0  0  0  0  0  0  0  0  0
   42.6700   40.0820   32.3180 O   0  0  0  0  0  0  0  0  0  0  0  0
   44.2430   38.7330   32.6130 O   0  0  0  0  0  0  0  0  0  0  0  0
   40.0750   39.6970   27.5420 Br  0  0  0  0  0  0  0  0  0  0  0  0
   42.9390   38.3290   30.6450 C   0  0  0  0  0  0  0  0  0  0  0  0
   41.7690   39.0790   30.0230 C   0  0  0  0  0  0  0  0  0  0  0  0
   41.4580   38.5830   28.6390 C   0  0  0  0  0  0  0  0  0  0  0  0
  2  3  2  0
  2  4  1  0
  5  8  1  0
  6  1  1  0
  6  2  1  0
  7  6  1  0
  8  7  1  0
M  END
$$$$

     RDKit          3D

 20 21  0  0  0  0  0  0  0  0999 V2000
   39.9050   41.0690   27.5450 C   0  0  0  0  0  0  0  0  0  0  0  0
   42.0020   38.2660   28.3110 C   0  0  0  0  0  0  0  0  0  0  0  0
   41.9440   36.5580   31.1400 O   0  0  0  0  0  0  0  0  0  0  0  0
   46.9130   39.1700   33.1080 C   0  0  0  0  0  0  0  0  0  0  0  0
   40.8380   39.1720   26.0010 C   0  0  0  0  0  0  0  0  0  0  0  0
   45.4810   39.3800   32.6770 C   0  0  0  0  0  0  0  0  0  0  0  0
   47.3370   38.1060   33.5060 O   0  0  0  0  0  0  0  0  0  0  0  0
   41.9570   38.8470   30.7740 C   0  0  0  0  0  0  0  0  0  0  0  0
   47.7660   40.3830   32.8160 O   0  0  0  0  0  0  0  0  0  0  0  0
   40.7540   38.3820   28.4260 N   0  0  0  0  0  0  0  0  0  0  0  0
   42.2860   37.6710   33.3870 N   0  0  0  0  0  0  0  0  0  0  0  0
   42.8200   37.6160   31.1360 C   0  0  0  0  0  0  0  0  0  0  0  0
   41.1900   38.1330   29.6520 C   0  0  0  0  0  0  0  0  0  0  0  0
   43.1870   38.2100   28.2030 O   0  0  0  0  0  0  0  0  0  0  0  0
   44.9030   38.0450   32.0000 C   0  0  0  0  0  0  0  0  0  0  0  0
   40.1650   38.0340   26.7530 C   0  0  0  0  0  0  0  0  0  0  0  0
   43.4510   37.8730   32.4850 C   0  0  0  0  0  0  0  0  0  0  0  0
   38.9180   40.8090   26.4140 C   0  0  0  0  0  0  0  0  0  0  0  0
   40.3970   40.6650   26.2400 C   0  0  0  0  0  0  0  0  0  0  0  0
   41.4070   41.7370   25.7240 C   0  0  0  0  0  0  0  0  0  0  0  0
  2 10  1  0
  2 13  1  0
  4  7  1  0
  5 19  1  0
  5 16  1  0
  6  4  1  0
  8 12  1  0
  9  4  2  0
 10 13  1  0
 12  3  1  0
 12 17  1  0
 13  8  1  0
 14  2  2  0
 15 17  1  0
 15  6  1  0
 16 10  1  0
 17 11  1  0
 18  1  1  0
 19 18  1  0
 19  1  1  0
 20 19  1  0
M  END
$$$$

     RDKit          3D

  8  9  0  0  0  0  0  0  0  0999 V2000
   40.6150   38.7630   28.5310 C   0  0  0  0  0  0  0  0  0  0  0  0
   42.3460   38.1560   29.9900 C   0  0  0  0  0  0  0  0  0  0  0  0
   43.0110   38.7960   28.8290 C   0  0  0  0  0  0  0  0  0  0  0  0
   41.8450   39.5960   28.2220 C   0  0  0  0  0  0  0  0  0  0  0  0
   43.1940   39.2340   30.1870 N   0  0  0  0  0  0  0  0  0  0  0  0
   42.1810   39.8850   26.8930 O   0  0  0  0  0  0  0  0  0  0  0  0
   40.9830   38.7380   30.0250 C   0  0  0  0  0  0  0  0  0  0  0  0
   40.5430   37.5370   27.8040 O   0  0  0  0  0  0  0  0  0  0  0  0
  1  8  1  0
  1  7  1  0
  2  7  1  0
  2  5  1  0
  3  2  1  0
  3  5  1  0
  4  6  1  0
  4  1  1  0
  4  3  1  0
M  END
$$$$

     RDKit          3D

 18 19  0  0  0  0  0  0  0  0999 V2000
   41.9930   41.0100   27.3850 O   0  0  0  0  0  0  0  0  0  0  0  0
   41.0830   36.9940   30.3170 C   0  0  0  0  0  0  0  0  0  0  0  0
   43.0520   40.4770   25.1820 C   0  0  0  0  0  0  0  0  0  0  0  0
   41.3200   39.9320   32.0630 O   0  0  0  0  0  0  0  0  0  0  0  0
   41.4960   38.4300   30.0910 C   0  0  0  0  0  0  0  0  0  0  0  0
   43.9270   39.5840   27.6980 C   0  0  0  0  0  0  0  0  0  0  0  0
   40.6460   36.3570   29.3990 O   0  0  0  0  0  0  0  0  0  0  0  0
   40.8920   39.2520   28.9560 C   0  0  0  0  0  0  0  0  0  0  0  0
   41.6400   38.8940   31.5610 C   0  0  0  0  0  0  0  0  0  0  0  0
   42.2210   37.7210   32.3230 C   0  0  0  0  0  0  0  0  0  0  0  0
   43.2250   38.3900   28.4410 C   0  0  0  0  0  0  0  0  0  0  0  0
   41.2480   36.5500   31.7730 C   0  0  0  0  0  0  0  0  0  0  0  0
   43.8140   41.6460   24.7320 N   0  0  0  0  0  0  0  0  0  0  0  0
   42.8310   38.3180   29.8230 O   0  0  0  0  0  0  0  0  0  0  0  0
   41.8750   35.1490   32.0040 C   0  0  0  0  0  0  0  0  0  0  0  0
   43.0870   40.4050   26.6570 C   0  0  0  0  0  0  0  0  0  0  0  0
   41.6070   40.5270   28.7330 C   0  0  0  0  0  0  0  0  0  0  0  0
   39.9020   36.4640   32.2930 O   0  0  0  0  0  0  0  0  0  0  0  0
  1 17  1  0
  2 12  1  0
  5  8  1  0
  5  2  1  0
  5  9  1  0
  6 11  1  0
  7  2  2  0
  9  4  2  0
  9 10  1  0
 11 14  1  0
 12 15  1  0
 12 18  1  0
 12 10  1  0
 13  3  1  0
 14  5  1  0
 16  3  1  0
 16  1  1  0
 16  6  1  0
 17  8  1  0
M  END
$$$$

     RDKit          3D

 18 18  0  0  0  0  0  0  0  0999 V2000
   44.2250   38.9080   31.9570 C   0  0  0  0  0  0  0  0  0  0  0  0
   40.4110   37.5420   27.3880 C   0  0  0  0  0  0  0  0  0  0  0  0
   42.9890   39.9110   32.1390 C   0  0  0  0  0  0  0  0  0  0  0  0
   41.3060   38.0530   28.4770 C   0  0  0  0  0  0  0  0  0  0  0  0
   40.3370   41.6670   26.8180 C   0  0  0  0  0  0  0  0  0  0  0  0
   40.4520   36.2930   28.2090 O   0  0  0  0  0  0  0  0  0  0  0  0
   41.7460   39.9820   29.8590 C   0  0  0  0  0  0  0  0  0  0  0  0
   40.4940   38.8930   29.3480 C   0  0  0  0  0  0  0  0  0  0  0  0
   41.6550   37.5180   31.0740 O   0  0  0  0  0  0  0  0  0  0  0  0
   40.9420   42.8200   27.4920 O   0  0  0  0  0  0  0  0  0  0  0  0
   40.5820   39.3640   27.0620 O   0  0  0  0  0  0  0  0  0  0  0  0
   41.8090   40.0650   32.8750 O   0  0  0  0  0  0  0  0  0  0  0  0
   41.8820   40.7030   28.6620 O   0  0  0  0  0  0  0  0  0  0  0  0
   40.7320   40.4720   27.7070 C   0  0  0  0  0  0  0  0  0  0  0  0
   42.5950   37.9500   30.8340 C   0  0  0  0  0  0  0  0  0  0  0  0
   42.8500   40.5840   30.6990 C   0  0  0  0  0  0  0  0  0  0  0  0
   44.0000   37.9770   30.8370 C   0  0  0  0  0  0  0  0  0  0  0  0
   45.1420   38.8130   32.6240 O   0  0  0  0  0  0  0  0  0  0  0  0
  1  3  1  0
  1 18  2  0
  2  6  1  0
  2  4  1  0
  3 12  1  0
  4  8  1  0
  5 10  1  0
  7 16  1  0
  8  7  1  0
 11  2  1  0
 11 14  1  0
 13  7  1  0
 14  5  1  0
 14 13  1  0
 15 17  1  0
 15  9  2  0
 16  3  1  0
 17  1  1  0
M  END
$$$$

     RDKit          3D

 21 21  0  0  0  0  0  0  0  0999 V2000
   39.4250   36.0800   32.3300 C   0  0  0  0  0  0  0  0  0  0  0  0
   44.8920   40.1970   29.9840 C   0  0  0  0  0  0  0  0  0  0  0  0
   43.0270   39.8260   28.5650 C   0  0  0  0  0  0  0  0  0  0  0  0
   43.1450   38.8210   30.7770 C   0  0  0  0  0  0  0  0  0  0  0  0
   43.7420   39.6820   29.7340 C   0  0  0  0  0  0  0  0  0  0  0  0
   42.8370   42.3770   28.2440 C   0  0  0  0  0  0  0  0  0  0  0  0
   44.4950   44.3040   29.0690 C   0  0  0  0  0  0  0  0  0  0  0  0
   42.0690   38.7390   28.3810 C   0  0  0  0  0  0  0  0  0  0  0  0
   43.2550   39.1380   31.8550 O   0  0  0  0  0  0  0  0  0  0  0  0
   45.1770   41.8650   29.3040 S   0  0  0  0  0  0  0  0  0  0  0  0
   39.8290   38.5880   32.1830 C   0  0  0  0  0  0  0  0  0  0  0  0
   40.1120   38.8180   30.0360 C   0  0  0  0  0  0  0  0  0  0  0  0
   40.8900   39.2270   29.1280 C   0  0  0  0  0  0  0  0  0  0  0  0
   41.8700   43.4540   27.6460 C   0  0  0  0  0  0  0  0  0  0  0  0
   42.2170   36.2070   32.2810 C   0  0  0  0  0  0  0  0  0  0  0  0
   41.5260   36.9440   31.1130 C   0  0  0  0  0  0  0  0  0  0  0  0
   42.3640   41.0910   28.2070 N   0  0  0  0  0  0  0  0  0  0  0  0
   45.0470   40.0820   31.5010 N   0  0  0  0  0  0  0  0  0  0  0  0
   40.1330   37.2440   31.6640 C   0  0  0  0  0  0  0  0  0  0  0  0
   44.1500   42.9040   28.7440 C   0  0  0  0  0  0  0  0  0  0  0  0
   42.4070   37.8260   30.3430 N   0  0  0  0  0  0  0  0  0  0  0  0
  2 18  1  0
  3  8  1  0
  3  5  1  0
  4  9  2  0
  5  2  1  0
  5  4  1  0
  6 20  1  0
  8 13  1  0
 10  2  1  0
 13 12  2  0
 14  6  1  0
 16 19  1  0
 16 15  1  0
 17  6  2  0
 17  3  1  0
 19 11  1  0
 19  1  1  0
 20  7  1  0
 20 10  1  0
 21  4  1  0
 21 16  1  0
M  END
$$$$

     RDKit          3D

 12 11  0  0  0  0  0  0  0  0999 V2000
   44.5460   37.6810   31.4420 C   0  0  0  0  0  0  0  0  0  0  0  0
   41.7170   37.0130   30.9020 N   0  0  0  0  0  0  0  0  0  0  0  0
   41.7750   39.5750   31.9600 C   0  0  0  0  0  0  0  0  0  0  0  0
   41.2040   39.6350   28.2170 C   0  0  0  0  0  0  0  0  0  0  0  0
   41.9000   37.1790   28.1010 N   0  0  0  0  0  0  0  0  0  0  0  0
   41.4870   38.3670   30.8020 C   0  0  0  0  0  0  0  0  0  0  0  0
   42.6670   39.0230   31.8870 C   0  0  0  0  0  0  0  0  0  0  0  0
   41.7180   39.4550   30.5400 C   0  0  0  0  0  0  0  0  0  0  0  0
   42.2320   39.8170   29.3350 O   0  0  0  0  0  0  0  0  0  0  0  0
   44.3960   40.1600   32.9790 C   0  0  0  0  0  0  0  0  0  0  0  0
   44.2400   39.0640   31.6990 S   0  0  0  0  0  0  0  0  0  0  0  0
   41.2540   38.2960   27.9660 C   0  0  0  0  0  0  0  0  0  0  0  0
  1 11  1  0
  4  9  1  0
  6  2  1  0
  7  3  1  0
  8  6  1  0
  8  3  1  0
  9  8  1  0
 11  7  1  0
 11 10  1  0
 12  5  2  0
 12  4  1  0
M  END
$$$$

     RDKit          3D

 11 10  0  0  0  0  0  0  0  0999 V2000
   42.5150   38.0080   27.9410 O   0  0  0  0  0  0  0  0  0  0  0  0
   42.2680   37.7650   30.8990 N   0  0  0  0  0  0  0  0  0  0  0  0
   43.9230   38.3510   32.3040 O   0  0  0  0  0  0  0  0  0  0  0  0
   42.7950   36.4510   32.6950 N   0  0  0  0  0  0  0  0  0  0  0  0
   42.4220   40.0940   31.3930 C   0  0  0  0  0  0  0  0  0  0  0  0
   43.0460   37.5680   31.9880 C   0  0  0  0  0  0  0  0  0  0  0  0
   41.2990   40.0340   28.3950 O   0  0  0  0  0  0  0  0  0  0  0  0
   41.4760   38.7500   28.5880 S   0  0  0  0  0  0  0  0  0  0  0  0
   40.2840   38.0610   28.8270 O   0  0  0  0  0  0  0  0  0  0  0  0
   42.2760   39.0770   30.2790 C   0  0  0  0  0  0  0  0  0  0  0  0
   41.5250   40.1500   32.3000 O   0  0  0  0  0  0  0  0  0  0  0  0
  1  8  1  0
  2  6  1  0
  5 11  2  0
  6  3  2  0
  6  4  1  0
  7  8  1  0
  8  9  1  0
  8 10  1  0
 10  2  1  0
 10  5  1  0
M  END
$$$$

     RDKit          3D

 13 13  0  0  0  0  0  0  0  0999 V2000
   41.8370   40.1310   32.5810 O   0  0  0  0  0  0  0  0  0  0  0  0
   43.9330   38.0890   30.5930 C   0  0  0  0  0  0  0  0  0  0  0  0
   43.1160   40.9590   29.1610 C   0  0  0  0  0  0  0  0  0  0  0  0
   41.2130   38.9210   28.1150 C   0  0  0  0  0  0  0  0  0  0  0  0
   44.6810   38.0300   29.3080 C   0  0  0  0  0  0  0  0  0  0  0  0
   42.9720   40.1320   30.2490 N   0  0  0  0  0  0  0  0  0  0  0  0
   42.2180   38.9720   32.0640 C   0  0  0  0  0  0  0  0  0  0  0  0
   42.1450   42.1520   28.9570 C   0  0  0  0  0  0  0  0  0  0  0  0
   42.5030   38.7690   30.4470 C   0  0  0  0  0  0  0  0  0  0  0  0
   42.6700   38.1030   32.6990 O   0  0  0  0  0  0  0  0  0  0  0  0
   42.1950   38.1170   29.0290 C   0  0  0  0  0  0  0  0  0  0  0  0
   44.1390   40.9090   28.3170 O   0  0  0  0  0  0  0  0  0  0  0  0
   43.5100   38.0440   28.3720 N   0  0  0  0  0  0  0  0  0  0  0  0
  3  6  1  0
  5  2  1  0
  7  1  2  0
  7 10  1  0
  8  3  1  0
  9  6  1  0
  9  2  1  0
  9  7  1  0
 11  4  1  0
 11  9  1  0
 12  3  2  0
 13 11  1  0
 13  5  1  0
M  END
$$$$

     RDKit          3D

  9  8  0  0  0  0  0  0  0  0999 V2000
   42.2810   40.5320   30.9540 C   0  0  0  0  0  0  0  0  0  0  0  0
   41.9190   39.4770   32.1890 N   0  0  0  0  0  0  0  0  0  0  0  0
   44.1950   39.8830   30.8310 C   0  0  0  0  0  0  0  0  0  0  0  0
   43.1200   37.1710   32.0500 O   0  0  0  0  0  0  0  0  0  0  0  0
   44.0860   41.2310   30.8470 N   0  0  0  0  0  0  0  0  0  0  0  0
   42.0850   38.1150   31.6040 C   0  0  0  0  0  0  0  0  0  0  0  0
   41.5260   37.9110   30.5660 O   0  0  0  0  0  0  0  0  0  0  0  0
   45.0500   41.7870   30.7840 O   0  0  0  0  0  0  0  0  0  0  0  0
   42.7780   41.5240   30.3180 C   0  0  0  0  0  0  0  0  0  0  0  0
  1  2  1  0
  3  5  1  0
  6  4  1  0
  6  2  1  0
  7  6  2  0
  8  5  1  0
  9  5  1  0
  9  1  1  0
M  END
$$$$

     RDKit          3D

 13 13  0  0  0  0  0  0  0  0999 V2000
   42.9810   39.5330   29.4450 C   0  0  0  0  0  0  0  0  0  0  0  0
   43.4750   40.0960   33.3840 O   0  0  0  0  0  0  0  0  0  0  0  0
   41.1440   38.7300   28.2580 C   0  0  0  0  0  0  0  0  0  0  0  0
   41.3670   38.0000   30.3580 C   0  0  0  0  0  0  0  0  0  0  0  0
   41.0770   38.0560   27.5360 O   0  0  0  0  0  0  0  0  0  0  0  0
   42.5790   41.7600   32.2110 O   0  0  0  0  0  0  0  0  0  0  0  0
   42.3210   38.4640   31.4710 O   0  0  0  0  0  0  0  0  0  0  0  0
   41.4550   39.1960   29.4070 C   0  0  0  0  0  0  0  0  0  0  0  0
   42.9760   39.6930   31.0230 C   0  0  0  0  0  0  0  0  0  0  0  0
   42.9830   40.5780   32.3420 C   0  0  0  0  0  0  0  0  0  0  0  0
   40.7830   36.8470   29.6300 O   0  0  0  0  0  0  0  0  0  0  0  0
   43.3650   40.6640   28.4420 C   0  0  0  0  0  0  0  0  0  0  0  0
   43.8840   38.4020   29.2160 O   0  0  0  0  0  0  0  0  0  0  0  0
  1 12  1  0
  1  9  1  0
  4  7  1  0
  5  3  1  0
  6 10  2  0
  8  3  1  0
  8  1  1  0
  8  4  1  0
  9  7  1  0
  9 10  1  0
 10  2  1  0
 11  4  2  0
 13  1  1  0
M  END
$$$$

     RDKit          3D

 10  9  0  0  0  0  0  0  0  0999 V2000
   43.1040   38.3490   29.6930 C   0  0  0  0  0  0  0  0  0  0  0  0
   43.4880   38.5950   31.1860 C   0  0  0  0  0  0  0  0  0  0  0  0
   42.1900   38.8530   31.9980 C   0  0  0  0  0  0  0  0  0  0  0  0
   41.6160   38.7730   29.4610 C   0  0  0  0  0  0  0  0  0  0  0  0
   41.1940   39.2490   25.6280 N   0  0  0  0  0  0  0  0  0  0  0  0
   44.2360   37.4760   31.7740 N   0  0  0  0  0  0  0  0  0  0  0  0
   41.4480   37.9210   32.2790 O   0  0  0  0  0  0  0  0  0  0  0  0
   41.2290   38.5020   27.9900 C   0  0  0  0  0  0  0  0  0  0  0  0
   41.9480   40.0400   32.3240 O   0  0  0  0  0  0  0  0  0  0  0  0
   41.6490   39.6450   27.0750 C   0  0  0  0  0  0  0  0  0  0  0  0
  1  2  1  0
  2  6  1  0
  2  3  1  0
  3  7  2  0
  3  9  1  0
  4  1  1  0
  5 10  1  0
  8  4  1  0
 10  8  1  0
M  END
$$$$

     RDKit          3D

  9  8  0  0  0  0  0  0  0  0999 V2000
   44.1970   40.1830   31.9260 O   0  0  0  0  0  0  0  0  0  0  0  0
   42.3590   39.2030   29.4510 C   0  0  0  0  0  0  0  0  0  0  0  0
   42.9750   38.3660   30.5920 C   0  0  0  0  0  0  0  0  0  0  0  0
   42.9530   36.9510   30.4420 O   0  0  0  0  0  0  0  0  0  0  0  0
   44.1030   39.0510   33.6560 O   0  0  0  0  0  0  0  0  0  0  0  0
   42.3060   38.8390   31.9620 C   0  0  0  0  0  0  0  0  0  0  0  0
   43.5890   39.3350   32.5890 C   0  0  0  0  0  0  0  0  0  0  0  0
   40.9310   39.1340   29.6440 O   0  0  0  0  0  0  0  0  0  0  0  0
   41.6700   37.7060   32.3960 O   0  0  0  0  0  0  0  0  0  0  0  0
  1  7  2  0
  2  8  1  0
  2  3  1  0
  3  4  1  0
  3  6  1  0
  6  9  1  0
  6  7  1  0
  7  5  1  0
M  END
$$$$

     RDKit          3D

  7  6  0  0  0  0  0  0  0  0999 V2000
   42.8830   37.8130   32.5180 O   0  0  0  0  0  0  0  0  0  0  0  0
   41.4630   39.5570   28.8780 O   0  0  0  0  0  0  0  0  0  0  0  0
   42.2600   38.4370   31.6270 C   0  0  0  0  0  0  0  0  0  0  0  0
   42.8870   38.2110   30.2030 C   0  0  0  0  0  0  0  0  0  0  0  0
   42.5470   39.0180   28.9490 C   0  0  0  0  0  0  0  0  0  0  0  0
   41.4520   39.3540   31.8880 O   0  0  0  0  0  0  0  0  0  0  0  0
   43.5680   39.2080   28.1020 O   0  0  0  0  0  0  0  0  0  0  0  0
  2  5  1  0
  3  6  2  0
  3  1  1  0
  4  3  1  0
  5  4  1  0
  7  5  2  0
M  END
$$$$

     RDKit          3D

 12 12  0  0  0  0  0  0  0  0999 V2000
   42.7140   40.5600   30.7150 O   0  0  0  0  0  0  0  0  0  0  0  0
   42.6120   39.4820   31.7440 C   0  0  0  0  0  0  0  0  0  0  0  0
   41.8310   39.9360   27.7150 C   0  0  0  0  0  0  0  0  0  0  0  0
   43.4260   38.2760   31.4750 C   0  0  0  0  0  0  0  0  0  0  0  0
   42.9900   37.0650   31.8020 F   0  0  0  0  0  0  0  0  0  0  0  0
   41.6400   39.6520   30.5080 P   0  0  0  0  0  0  0  0  0  0  0  0
   43.1800   40.6750   31.8930 C   0  0  0  0  0  0  0  0  0  0  0  0
   41.0760   39.7410   28.8770 C   0  0  0  0  0  0  0  0  0  0  0  0
   44.7200   38.5070   32.2370 C   0  0  0  0  0  0  0  0  0  0  0  0
   40.7950   38.6340   30.2820 C   0  0  0  0  0  0  0  0  0  0  0  0
   43.6140   37.9420   30.0760 C   0  0  0  0  0  0  0  0  0  0  0  0
   43.6320   41.3900   32.7280 O   0  0  0  0  0  0  0  0  0  0  0  0
  1  7  1  0
  2  4  1  0
  2  7  1  0
  3  8  1  0
  4  5  1  0
  4  9  1  0
  6 10  1  0
  6  1  1  0
  6  2  1  0
  7 12  2  0
  8  6  1  0
 11  4  1  0
M  END
$$$$

     RDKit          3D

  8  7  0  0  0  0  0  0  0  0999 V2000
   41.9650   38.5270   30.9810 C   0  0  0  0  0  0  0  0  0  0  0  0
   42.8780   40.0300   33.3030 O   0  0  0  0  0  0  0  0  0  0  0  0
   43.5260   40.8600   32.3930 C   0  0  0  0  0  0  0  0  0  0  0  0
   43.8730   37.8140   29.8500 N   0  0  0  0  0  0  0  0  0  0  0  0
   43.4660   38.4380   31.1440 C   0  0  0  0  0  0  0  0  0  0  0  0
   41.6580   39.2230   29.6390 C   0  0  0  0  0  0  0  0  0  0  0  0
   44.0410   39.9030   31.2650 C   0  0  0  0  0  0  0  0  0  0  0  0
   40.3780   38.1860   28.8380 S   0  0  0  0  0  0  0  0  0  0  0  0
  1  5  1  0
  3  2  1  0
  5  4  1  0
  5  7  1  0
  6  1  1  0
  7  3  1  0
  8  6  1  0
M  END
$$$$

     RDKit          3D

 11 11  0  0  0  0  0  0  0  0999 V2000
   44.0690   38.4750   32.0850 O   0  0  0  0  0  0  0  0  0  0  0  0
   43.4230   38.4720   29.0880 C   0  0  0  0  0  0  0  0  0  0  0  0
   43.2470   40.5280   31.0190 O   0  0  0  0  0  0  0  0  0  0  0  0
   40.2520   39.0460   28.4920 C   0  0  0  0  0  0  0  0  0  0  0  0
   40.9380   37.6820   26.6690 O   0  0  0  0  0  0  0  0  0  0  0  0
   42.6850   38.6530   28.0650 C   0  0  0  0  0  0  0  0  0  0  0  0
   40.6360   38.6700   29.9480 C   0  0  0  0  0  0  0  0  0  0  0  0
   41.7890   39.1990   32.5150 O   0  0  0  0  0  0  0  0  0  0  0  0
   42.8600   39.1290   31.6010 P   0  0  0  0  0  0  0  0  0  0  0  0
   42.1620   38.2680   30.1120 C   0  0  0  0  0  0  0  0  0  0  0  0
   41.2960   38.3640   27.6290 C   0  0  0  0  0  0  0  0  0  0  0  0
  2 10  1  0
  3  9  2  0
  4  7  1  0
  5 11  2  0
  6  2  1  0
  7 10  1  0
  9  1  1  0
  9  8  1  0
 10  9  1  0
 11  6  1  0
 11  4  1  0
M  END
$$$$

     RDKit          3D

  9  9  0  0  0  0  0  0  0  0999 V2000
   40.8980   37.8140   29.4110 C   0  0  0  0  0  0  0  0  0  0  0  0
   42.4730   38.8020   30.7430 C   0  0  0  0  0  0  0  0  0  0  0  0
   42.8050   39.2780   32.1610 C   0  0  0  0  0  0  0  0  0  0  0  0
   42.4830   39.6030   29.4550 C   0  0  0  0  0  0  0  0  0  0  0  0
   41.4910   37.8390   30.6680 N   0  0  0  0  0  0  0  0  0  0  0  0
   40.3490   40.2000   29.3540 O   0  0  0  0  0  0  0  0  0  0  0  0
   42.1730   40.2870   32.5080 O   0  0  0  0  0  0  0  0  0  0  0  0
   41.1800   39.1380   28.7710 C   0  0  0  0  0  0  0  0  0  0  0  0
   43.7310   38.6840   32.7720 O   0  0  0  0  0  0  0  0  0  0  0  0
  1  5  1  0
  2  3  1  0
  3  7  2  0
  3  9  1  0
  4  2  1  0
  5  2  1  0
  8  6  1  0
  8  1  1  0
  8  4  1  0
M  END
$$$$
