
     RDKit          3D

 21 21  0  0  0  0  0  0  0  0999 V2000
   38.1880   38.6620   33.1240 C   0  0  0  0  0  0  0  0  0  0  0  0
   39.7880   37.2310   29.4760 C   0  0  0  0  0  0  0  0  0  0  0  0
   39.6310   35.7530   29.8770 C   0  0  0  0  0  0  0  0  0  0  0  0
   37.0300   38.3980   33.7400 C   0  0  0  0  0  0  0  0  0  0  0  0
   41.5390   41.3380   30.1570 C   0  0  0  0  0  0  0  0  0  0  0  0
   38.8210   37.3750   32.8780 N   0  0  0  0  0  0  0  0  0  0  0  0
   41.1270   33.8410   29.4020 N   0  0  0  0  0  0  0  0  0  0  0  0
   39.7240   38.0920   30.6250 N   0  0  0  0  0  0  0  0  0  0  0  0
   39.7040   40.3760   31.9390 C   0  0  0  0  0  0  0  0  0  0  0  0
   38.5480   39.8800   32.7690 C   0  0  0  0  0  0  0  0  0  0  0  0
   39.9730   39.3940   30.8050 C   0  0  0  0  0  0  0  0  0  0  0  0
   35.9260   37.4910   33.1350 C   0  0  0  0  0  0  0  0  0  0  0  0
   36.8200   39.2250   34.6870 O   0  0  0  0  0  0  0  0  0  0  0  0
   33.6130   37.8350   32.0100 C   0  0  0  0  0  0  0  0  0  0  0  0
   40.6720   35.1180   28.8180 C   0  0  0  0  0  0  0  0  0  0  0  0
   34.4020   37.9590   33.2890 C   0  0  0  0  0  0  0  0  0  0  0  0
   40.0910   35.1050   27.5450 O   0  0  0  0  0  0  0  0  0  0  0  0
   34.2560   39.4450   33.8180 C   0  0  0  0  0  0  0  0  0  0  0  0
   41.0540   39.9300   29.8010 C   0  0  0  0  0  0  0  0  0  0  0  0
   38.6260   36.1440   32.2370 C   0  0  0  0  0  0  0  0  0  0  0  0
   39.9080   35.5980   31.4680 C   0  0  0  0  0  0  0  0  0  0  0  0
  1  4  1  0
  2  3  1  0
  2  8  1  0
  3 15  1  0
  3 21  1  0
  4 13  2  0
  6  1  1  0
  8 11  1  0
  9 10  1  0
 10  1  2  0
 11 19  1  0
 11  9  1  0
 12 16  1  0
 12  4  1  0
 14 16  1  0
 15 17  1  0
 15  7  1  0
 16 18  1  0
 19  5  1  0
 20  6  1  0
 21 20  1  0
M  END
$$$$

     RDKit          3D

  7  6  0  0  0  0  0  0  0  0999 V2000
   41.5600   36.2020   28.5150 C   0  0  0  0  0  0  0  0  0  0  0  0
   42.0220   38.4090   27.8820 O   0  0  0  0  0  0  0  0  0  0  0  0
   40.4880   35.1640   28.3550 C   0  0  0  0  0  0  0  0  0  0  0  0
   41.1440   37.5620   27.8930 C   0  0  0  0  0  0  0  0  0  0  0  0
   42.8120   35.6780   27.9420 N   0  0  0  0  0  0  0  0  0  0  0  0
   40.1000   37.8680   27.5500 O   0  0  0  0  0  0  0  0  0  0  0  0
   40.0610   34.6290   29.6930 C   0  0  0  0  0  0  0  0  0  0  0  0
  1  5  1  0
  2  4  1  0
  3  1  1  0
  3  7  1  0
  4  1  1  0
  6  4  2  0
M  END
$$$$

     RDKit          3D

 14 14  0  0  0  0  0  0  0  0999 V2000
   43.9400   38.0850   28.1730 C   0  0  0  0  0  0  0  0  0  0  0  0
   43.8530   37.4530   25.0880 O   0  0  0  0  0  0  0  0  0  0  0  0
   42.7640   35.7610   28.6700 C   0  0  0  0  0  0  0  0  0  0  0  0
   39.9020   37.4180   25.7440 N   0  0  0  0  0  0  0  0  0  0  0  0
   39.5040   36.3740   24.8080 C   0  0  0  0  0  0  0  0  0  0  0  0
   41.7870   38.3370   24.4460 C   0  0  0  0  0  0  0  0  0  0  0  0
   40.6380   37.0060   26.8730 C   0  0  0  0  0  0  0  0  0  0  0  0
   40.2770   35.6920   28.8000 C   0  0  0  0  0  0  0  0  0  0  0  0
   43.2860   36.8010   27.6510 C   0  0  0  0  0  0  0  0  0  0  0  0
   39.8240   36.6140   27.9360 C   0  0  0  0  0  0  0  0  0  0  0  0
   42.1480   37.1680   26.7020 C   0  0  0  0  0  0  0  0  0  0  0  0
   44.3330   36.0810   26.9480 N   0  0  0  0  0  0  0  0  0  0  0  0
   42.5230   37.5540   25.5060 C   0  0  0  0  0  0  0  0  0  0  0  0
   41.5630   36.1620   29.4220 N   0  0  0  0  0  0  0  0  0  0  0  0
  2 13  1  0
  3 14  1  0
  4  7  1  0
  5  4  1  0
  7 10  1  0
  8 14  1  0
  9  1  1  0
  9  3  1  0
 10  8  1  0
 11  7  2  0
 11  9  1  0
 12  9  1  0
 13  6  1  0
 13 11  1  0
M  END
$$$$

     RDKit          3D

  3  2  0  0  0  0  0  0  0  0999 V2000
   40.1980   38.0120   27.4920 C   0  0  0  0  0  0  0  0  0  0  0  0
   40.3050   36.7060   28.1850 C   0  0  0  0  0  0  0  0  0  0  0  0
   41.1960   35.8390   28.2830 N   0  0  0  0  0  0  0  0  0  0  0  0
  1  2  1  0
  2  3  2  0
M  END
$$$$

     RDKit          3D

  4  3  0  0  0  0  0  0  0  0999 V2000
   42.8370   35.9710   27.2890 N   0  0  0  0  0  0  0  0  0  0  0  0
   41.7300   35.9250   27.7200 C   0  0  0  0  0  0  0  0  0  0  0  0
   40.1670   37.7260   27.3150 C   0  0  0  0  0  0  0  0  0  0  0  0
   40.5250   36.7060   28.0270 C   0  0  0  0  0  0  0  0  0  0  0  0
  1  2  2  0
  2  4  1  0
  3  4  2  0
M  END
$$$$

     RDKit          3D

 24 26  0  0  0  0  0  0  0  0999 V2000
   42.4050   38.6520   28.5340 O   0  0  0  0  0  0  0  0  0  0  0  0
   43.7600   38.2330   30.1890 C   0  0  0  0  0  0  0  0  0  0  0  0
   34.7430   40.1030   23.3130 O   0  0  0  0  0  0  0  0  0  0  0  0
   44.0950   36.8430   30.8810 N   0  0  0  0  0  0  0  0  0  0  0  0
   38.9120   38.2840   26.2110 C   0  0  0  0  0  0  0  0  0  0  0  0
   38.7460   38.2790   24.6710 C   0  0  0  0  0  0  0  0  0  0  0  0
   39.8180   37.6850   27.4130 C   0  0  0  0  0  0  0  0  0  0  0  0
   40.0930   35.3940   28.1390 N   0  0  0  0  0  0  0  0  0  0  0  0
   42.6040   36.0050   26.1390 O   0  0  0  0  0  0  0  0  0  0  0  0
   34.8170   37.8870   23.2630 O   0  0  0  0  0  0  0  0  0  0  0  0
   40.5590   36.9360   24.7680 N   0  0  0  0  0  0  0  0  0  0  0  0
   37.3310   37.7750   24.3870 C   0  0  0  0  0  0  0  0  0  0  0  0
   36.6930   39.1430   24.1070 C   0  0  0  0  0  0  0  0  0  0  0  0
   44.5230   37.1290   28.3780 C   0  0  0  0  0  0  0  0  0  0  0  0
   43.1360   36.3110   28.4250 C   0  0  0  0  0  0  0  0  0  0  0  0
   38.9010   35.3580   25.2950 O   0  0  0  0  0  0  0  0  0  0  0  0
   45.0120   37.8470   30.7440 C   0  0  0  0  0  0  0  0  0  0  0  0
   42.1280   36.6750   27.2640 C   0  0  0  0  0  0  0  0  0  0  0  0
   40.2890   36.3950   26.9620 C   0  0  0  0  0  0  0  0  0  0  0  0
   43.9980   38.2240   28.5680 C   0  0  0  0  0  0  0  0  0  0  0  0
   35.2930   38.9950   23.5260 C   0  0  0  0  0  0  0  0  0  0  0  0
   37.6830   37.2600   23.0280 C   0  0  0  0  0  0  0  0  0  0  0  0
   39.7350   36.2430   25.4980 C   0  0  0  0  0  0  0  0  0  0  0  0
   42.1260   37.4030   28.3990 C   0  0  0  0  0  0  0  0  0  0  0  0
  1 20  1  0
  2 17  1  0
  2  4  1  0
  3 21  1  0
  5  7  1  0
  6  5  1  0
 10 21  2  0
 11 23  1  0
 12 22  1  0
 12  6  1  0
 13 12  1  0
 15 14  1  0
 16 23  2  0
 17  4  1  0
 18  9  1  0
 18 24  1  0
 18 15  1  0
 19 18  1  0
 19  7  1  0
 19  8  1  0
 20 14  1  0
 20  2  1  0
 21 13  1  0
 23 19  1  0
 24 15  1  0
 24  1  1  0
M  END
$$$$

     RDKit          3D

 15 14  0  0  0  0  0  0  0  0999 V2000
   39.1400   37.1800   24.7880 C   0  0  0  0  0  0  0  0  0  0  0  0
   44.0660   35.6430   28.5110 O   0  0  0  0  0  0  0  0  0  0  0  0
   41.3320   38.1980   28.6550 C   0  0  0  0  0  0  0  0  0  0  0  0
   40.8430   38.5090   23.8290 O   0  0  0  0  0  0  0  0  0  0  0  0
   43.2270   35.8390   27.6620 C   0  0  0  0  0  0  0  0  0  0  0  0
   43.5110   36.0690   26.4970 O   0  0  0  0  0  0  0  0  0  0  0  0
   38.9210   36.5290   26.8860 O   0  0  0  0  0  0  0  0  0  0  0  0
   39.1900   39.5700   24.2260 O   0  0  0  0  0  0  0  0  0  0  0  0
   40.2740   37.7850   25.3130 C   0  0  0  0  0  0  0  0  0  0  0  0
   41.8650   36.0240   29.4150 N   0  0  0  0  0  0  0  0  0  0  0  0
   39.9780   37.2690   26.8720 C   0  0  0  0  0  0  0  0  0  0  0  0
   38.8300   36.1250   24.6270 O   0  0  0  0  0  0  0  0  0  0  0  0
   41.7800   35.8090   27.9980 C   0  0  0  0  0  0  0  0  0  0  0  0
   38.4760   38.0300   24.8120 C   0  0  0  0  0  0  0  0  0  0  0  0
   41.2740   37.1560   27.4850 C   0  0  0  0  0  0  0  0  0  0  0  0
  1 14  1  0
  1  9  1  0
  5 13  1  0
  5  2  1  0
  6  5  2  0
  8 14  1  0
  9  4  1  0
  9 11  1  0
 11  7  1  0
 11 15  1  0
 12  1  2  0
 13 10  1  0
 15 13  1  0
 15  3  1  0
M  END
$$$$

     RDKit          3D

 12 11  0  0  0  0  0  0  0  0999 V2000
   42.5870   35.9710   28.5770 C   0  0  0  0  0  0  0  0  0  0  0  0
   42.6530   38.5020   27.8680 C   0  0  0  0  0  0  0  0  0  0  0  0
   44.1670   38.8220   28.0040 C   0  0  0  0  0  0  0  0  0  0  0  0
   45.0750   38.0530   27.0610 C   0  0  0  0  0  0  0  0  0  0  0  0
   43.6530   36.0410   29.3010 O   0  0  0  0  0  0  0  0  0  0  0  0
   40.0670   37.4590   25.9850 C   0  0  0  0  0  0  0  0  0  0  0  0
   41.7090   34.7950   28.8300 N   0  0  0  0  0  0  0  0  0  0  0  0
   42.1840   37.0560   27.4890 C   0  0  0  0  0  0  0  0  0  0  0  0
   42.8860   36.6260   26.2270 N   0  0  0  0  0  0  0  0  0  0  0  0
   40.5520   36.6080   24.9240 O   0  0  0  0  0  0  0  0  0  0  0  0
   40.6080   36.9910   27.3690 C   0  0  0  0  0  0  0  0  0  0  0  0
   38.5330   37.4430   25.9480 C   0  0  0  0  0  0  0  0  0  0  0  0
  1  7  1  0
  1  5  2  0
  2  3  1  0
  4  3  1  0
  6 12  1  0
  6 11  1  0
  8  9  1  0
  8  2  1  0
  8  1  1  0
 10  6  1  0
 11  8  1  0
M  END
$$$$

     RDKit          3D

 18 18  0  0  0  0  0  0  0  0999 V2000
   35.8870   39.3180   24.1350 C   0  0  0  0  0  0  0  0  0  0  0  0
   38.2120   39.9470   23.0320 C   0  0  0  0  0  0  0  0  0  0  0  0
   44.3880   36.3280   28.7940 O   0  0  0  0  0  0  0  0  0  0  0  0
   37.9760   38.1450   24.5420 C   0  0  0  0  0  0  0  0  0  0  0  0
   37.7320   36.8480   24.1310 C   0  0  0  0  0  0  0  0  0  0  0  0
   41.5890   35.5980   27.8430 C   0  0  0  0  0  0  0  0  0  0  0  0
   38.3830   35.8650   24.7950 C   0  0  0  0  0  0  0  0  0  0  0  0
   37.3510   39.0460   23.7830 N   0  0  0  0  0  0  0  0  0  0  0  0
   43.6550   36.9260   26.9790 O   0  0  0  0  0  0  0  0  0  0  0  0
   41.2250   36.1080   29.1310 C   0  0  0  0  0  0  0  0  0  0  0  0
   40.0110   35.1500   29.5580 C   0  0  0  0  0  0  0  0  0  0  0  0
   38.8090   38.3630   25.6240 C   0  0  0  0  0  0  0  0  0  0  0  0
   42.3350   37.2530   29.1690 C   0  0  0  0  0  0  0  0  0  0  0  0
   39.3810   37.3070   26.3220 C   0  0  0  0  0  0  0  0  0  0  0  0
   43.5410   36.8680   28.2160 C   0  0  0  0  0  0  0  0  0  0  0  0
   41.3620   36.8070   26.9810 N   0  0  0  0  0  0  0  0  0  0  0  0
   40.3310   37.4420   27.5300 C   0  0  0  0  0  0  0  0  0  0  0  0
   39.1190   36.0710   25.9060 C   0  0  0  0  0  0  0  0  0  0  0  0
  2  8  1  0
  4 12  1  0
  5  4  2  0
  5  7  1  0
  6 10  1  0
  7 18  2  0
  8  1  1  0
  8  4  1  0
  9 15  2  0
 10 13  1  0
 10 11  1  0
 12 14  2  0
 14 17  1  0
 15  3  1  0
 15 13  1  0
 16 17  1  0
 16  6  1  0
 18 14  1  0
M  END
$$$$

     RDKit          3D

  8  7  0  0  0  0  0  0  0  0999 V2000
   45.0580   36.1150   29.0000 C   0  0  0  0  0  0  0  0  0  0  0  0
   44.0760   36.7180   27.9460 C   0  0  0  0  0  0  0  0  0  0  0  0
   40.7370   37.6020   28.2490 N   0  0  0  0  0  0  0  0  0  0  0  0
   44.4400   36.7580   26.7550 O   0  0  0  0  0  0  0  0  0  0  0  0
   45.1960   37.1080   29.9600 O   0  0  0  0  0  0  0  0  0  0  0  0
   41.5750   36.7420   27.4480 C   0  0  0  0  0  0  0  0  0  0  0  0
   42.8140   34.6880   27.9020 N   0  0  0  0  0  0  0  0  0  0  0  0
   42.6950   36.1200   28.2460 C   0  0  0  0  0  0  0  0  0  0  0  0
  1  5  1  0
  2  4  1  0
  2  8  1  0
  2  1  1  0
  6  8  1  0
  6  3  1  0
  8  7  1  0
M  END
$$$$

     RDKit          3D

 17 18  0  0  0  0  0  0  0  0999 V2000
   40.6280   35.1220   29.0980 C   0  0  0  0  0  0  0  0  0  0  0  0
   39.1810   35.9880   25.2510 O   0  0  0  0  0  0  0  0  0  0  0  0
   39.9480   34.4260   30.2450 C   0  0  0  0  0  0  0  0  0  0  0  0
   41.8530   37.1140   23.6770 N   0  0  0  0  0  0  0  0  0  0  0  0
   38.1940   38.5010   24.8210 C   0  0  0  0  0  0  0  0  0  0  0  0
   42.7820   35.8850   28.2150 C   0  0  0  0  0  0  0  0  0  0  0  0
   39.5260   36.7480   26.0580 C   0  0  0  0  0  0  0  0  0  0  0  0
   40.0230   35.9430   28.1840 C   0  0  0  0  0  0  0  0  0  0  0  0
   42.1360   36.4540   26.9480 C   0  0  0  0  0  0  0  0  0  0  0  0
   42.8950   38.3100   25.4170 C   0  0  0  0  0  0  0  0  0  0  0  0
   42.6210   37.8730   26.8840 C   0  0  0  0  0  0  0  0  0  0  0  0
   41.7310   38.1280   24.5280 C   0  0  0  0  0  0  0  0  0  0  0  0
   41.9500   35.0810   29.0040 N   0  0  0  0  0  0  0  0  0  0  0  0
   38.9020   38.0400   26.0570 C   0  0  0  0  0  0  0  0  0  0  0  0
   40.5430   38.8930   24.5430 N   0  0  0  0  0  0  0  0  0  0  0  0
   39.2580   38.8690   23.8050 C   0  0  0  0  0  0  0  0  0  0  0  0
   40.6110   36.3910   27.0420 C   0  0  0  0  0  0  0  0  0  0  0  0
  1  3  1  0
  2  7  2  0
  4 12  2  0
  5 14  1  0
  6 13  1  0
  7 17  1  0
  8  1  1  0
  9 11  1  0
  9 17  1  0
  9  6  1  0
 10 11  1  0
 12 15  1  0
 12 10  1  0
 13  1  2  0
 14  7  1  0
 16 15  1  0
 16  5  1  0
 17  8  1  0
M  END
$$$$

     RDKit          3D

  8  8  0  0  0  0  0  0  0  0999 V2000
   41.0010   36.9290   28.5340 C   0  0  0  0  0  0  0  0  0  0  0  0
   39.8590   36.9920   27.6260 C   0  0  0  0  0  0  0  0  0  0  0  0
   40.1180   37.5340   26.2930 N   0  0  0  0  0  0  0  0  0  0  0  0
   42.3070   36.4720   28.1580 C   0  0  0  0  0  0  0  0  0  0  0  0
   43.1300   36.6660   25.9230 N   0  0  0  0  0  0  0  0  0  0  0  0
   42.2620   37.6330   25.2420 C   0  0  0  0  0  0  0  0  0  0  0  0
   41.2820   38.3690   26.1280 C   0  0  0  0  0  0  0  0  0  0  0  0
   42.3120   35.8810   26.7970 N   0  0  0  0  0  0  0  0  0  0  0  0
  2  1  1  0
  3  2  1  0
  4  1  1  0
  5  8  1  0
  6  5  1  0
  6  7  1  0
  7  3  1  0
  8  4  1  0
M  END
$$$$

     RDKit          3D

 11 11  0  0  0  0  0  0  0  0999 V2000
   41.2210   36.4030   26.5980 C   0  0  0  0  0  0  0  0  0  0  0  0
   42.5390   37.8720   25.2610 O   0  0  0  0  0  0  0  0  0  0  0  0
   39.8730   35.5330   28.7420 S   0  0  0  0  0  0  0  0  0  0  0  0
   43.0450   37.6420   27.6710 C   0  0  0  0  0  0  0  0  0  0  0  0
   40.2240   34.0610   29.7130 C   0  0  0  0  0  0  0  0  0  0  0  0
   42.6020   36.9540   26.3480 C   0  0  0  0  0  0  0  0  0  0  0  0
   44.0900   36.9670   28.3700 O   0  0  0  0  0  0  0  0  0  0  0  0
   41.0080   38.6570   28.2980 O   0  0  0  0  0  0  0  0  0  0  0  0
   41.3590   36.1340   28.1200 C   0  0  0  0  0  0  0  0  0  0  0  0
   41.8770   37.5510   28.6400 C   0  0  0  0  0  0  0  0  0  0  0  0
   42.3320   35.0270   28.3870 N   0  0  0  0  0  0  0  0  0  0  0  0
  1  9  1  0
  3  5  1  0
  4  7  1  0
  4 10  1  0
  6  2  1  0
  6  1  1  0
  6  4  1  0
  9 11  1  0
  9 10  1  0
  9  3  1  0
 10  8  1  0
M  END
$$$$

     RDKit          3D

  8  7  0  0  0  0  0  0  0  0999 V2000
   40.4480   37.6080   26.8700 C   0  0  0  0  0  0  0  0  0  0  0  0
   42.8500   36.8390   26.1290 O   0  0  0  0  0  0  0  0  0  0  0  0
   40.8970   35.4860   28.2750 C   0  0  0  0  0  0  0  0  0  0  0  0
   40.1630   36.8310   28.1850 C   0  0  0  0  0  0  0  0  0  0  0  0
   42.3920   35.7180   28.2510 C   0  0  0  0  0  0  0  0  0  0  0  0
   40.5610   34.7380   29.5650 C   0  0  0  0  0  0  0  0  0  0  0  0
   42.8010   37.0030   27.5310 C   0  0  0  0  0  0  0  0  0  0  0  0
   41.2770   38.6610   26.3320 O   0  0  0  0  0  0  0  0  0  0  0  0
  1  4  1  0
  2  7  1  0
  3  6  1  0
  4  3  1  0
  5  3  1  0
  7  5  1  0
  8  1  1  0
M  END
$$$$

     RDKit          3D

 15 15  0  0  0  0  0  0  0  0999 V2000
   41.7470   39.0170   25.1640 C   0  0  0  0  0  0  0  0  0  0  0  0
   39.4050   35.3840   25.8420 O   0  0  0  0  0  0  0  0  0  0  0  0
   41.8380   37.6370   27.2180 C   0  0  0  0  0  0  0  0  0  0  0  0
   42.5140   39.9460   25.5120 O   0  0  0  0  0  0  0  0  0  0  0  0
   42.7440   36.6610   26.4490 C   0  0  0  0  0  0  0  0  0  0  0  0
   40.9270   38.4180   26.2200 C   0  0  0  0  0  0  0  0  0  0  0  0
   40.2260   33.9300   29.1170 C   0  0  0  0  0  0  0  0  0  0  0  0
   39.7640   37.6220   25.9840 C   0  0  0  0  0  0  0  0  0  0  0  0
   41.7330   38.5310   23.9860 O   0  0  0  0  0  0  0  0  0  0  0  0
   40.9360   37.2740   28.1990 O   0  0  0  0  0  0  0  0  0  0  0  0
   41.0430   35.1960   29.0670 C   0  0  0  0  0  0  0  0  0  0  0  0
   40.3300   36.0090   27.9570 C   0  0  0  0  0  0  0  0  0  0  0  0
   39.7550   36.2910   26.5170 C   0  0  0  0  0  0  0  0  0  0  0  0
   38.4910   38.1130   24.8180 S   0  0  0  0  0  0  0  0  0  0  0  0
   42.3770   34.9180   28.6390 O   0  0  0  0  0  0  0  0  0  0  0  0
  1  4  1  0
  2 13  2  0
  3  5  1  0
  3 10  1  0
  6  1  1  0
  6  3  1  0
  8 14  1  0
  8  6  1  0
  8 13  1  0
  9  1  2  0
 11  7  1  0
 12 10  1  0
 12 11  1  0
 13 12  1  0
 15 11  1  0
M  END
$$$$

     RDKit          3D

  8  7  0  0  0  0  0  0  0  0999 V2000
   39.6040   37.2880   24.8060 S   0  0  0  0  0  0  0  0  0  0  0  0
   40.0840   36.5680   26.3190 C   0  0  0  0  0  0  0  0  0  0  0  0
   38.6300   38.6390   25.0440 C   0  0  0  0  0  0  0  0  0  0  0  0
   38.1680   39.1270   23.6750 C   0  0  0  0  0  0  0  0  0  0  0  0
   39.0890   36.7050   27.0490 O   0  0  0  0  0  0  0  0  0  0  0  0
   38.8900   36.2710   24.0230 O   0  0  0  0  0  0  0  0  0  0  0  0
   41.2270   35.8610   26.1200 N   0  0  0  0  0  0  0  0  0  0  0  0
   40.9420   37.7330   24.1130 N   0  0  0  0  0  0  0  0  0  0  0  0
  1  6  1  0
  1  3  1  0
  1  2  1  0
  2  5  2  0
  4  3  1  0
  7  2  1  0
  8  1  1  0
M  END
$$$$

     RDKit          3D

 10  9  0  0  0  0  0  0  0  0999 V2000
   43.8960   37.2770   29.3650 N   0  0  0  0  0  0  0  0  0  0  0  0
   40.3650   36.6120   27.4740 C   0  0  0  0  0  0  0  0  0  0  0  0
   41.9680   36.5890   27.8020 C   0  0  0  0  0  0  0  0  0  0  0  0
   42.1700   35.9470   25.3320 C   0  0  0  0  0  0  0  0  0  0  0  0
   40.4780   39.0270   26.4130 C   0  0  0  0  0  0  0  0  0  0  0  0
   42.4710   36.0800   26.6630 N   0  0  0  0  0  0  0  0  0  0  0  0
   44.0280   35.4290   28.7490 N   0  0  0  0  0  0  0  0  0  0  0  0
   39.9660   37.6310   26.4410 C   0  0  0  0  0  0  0  0  0  0  0  0
   38.7530   37.3380   25.5650 C   0  0  0  0  0  0  0  0  0  0  0  0
   43.4660   36.4350   28.6070 C   0  0  0  0  0  0  0  0  0  0  0  0
  3  2  1  0
  3 10  1  0
  4  6  1  0
  5  8  1  0
  6  3  1  0
  8  2  1  0
  9  8  1  0
 10  7  2  0
 10  1  1  0
M  END
$$$$

     RDKit          3D

 15 16  0  0  0  0  0  0  0  0999 V2000
   39.7930   35.7840   26.3530 O   0  0  0  0  0  0  0  0  0  0  0  0
   42.1030   35.4840   28.4120 N   0  0  0  0  0  0  0  0  0  0  0  0
   42.0300   38.0630   26.9870 C   0  0  0  0  0  0  0  0  0  0  0  0
   43.1270   36.5140   24.6070 O   0  0  0  0  0  0  0  0  0  0  0  0
   40.8330   37.3600   27.6090 C   0  0  0  0  0  0  0  0  0  0  0  0
   42.3810   37.3550   25.6310 C   0  0  0  0  0  0  0  0  0  0  0  0
   40.9440   35.9830   28.2400 C   0  0  0  0  0  0  0  0  0  0  0  0
   43.0800   37.7840   27.8460 O   0  0  0  0  0  0  0  0  0  0  0  0
   44.1800   37.1530   27.0290 C   0  0  0  0  0  0  0  0  0  0  0  0
   40.0280   35.4580   29.1380 C   0  0  0  0  0  0  0  0  0  0  0  0
   39.9540   38.9030   25.2080 O   0  0  0  0  0  0  0  0  0  0  0  0
   39.9050   36.9060   26.5210 C   0  0  0  0  0  0  0  0  0  0  0  0
   43.7610   39.4260   25.6500 O   0  0  0  0  0  0  0  0  0  0  0  0
   43.6820   37.7800   25.5970 S   0  0  0  0  0  0  0  0  0  0  0  0
   39.1940   37.9250   25.7150 C   0  0  0  0  0  0  0  0  0  0  0  0
  1 12  2  0
  3  5  1  0
  3  8  1  0
  4 14  1  0
  5 12  1  0
  5  7  1  0
  6  4  1  0
  6  3  1  0
  7  2  2  0
  7 10  1  0
  9  8  1  0
 11 15  1  0
 14  6  1  0
 14 13  1  0
 14  9  1  0
 15 12  1  0
M  END
$$$$

     RDKit          3D

 17 17  0  0  0  0  0  0  0  0999 V2000
   42.2080   37.7010   27.6770 C   0  0  0  0  0  0  0  0  0  0  0  0
   41.0180   38.2470   24.5290 C   0  0  0  0  0  0  0  0  0  0  0  0
   41.2140   35.7150   28.9930 C   0  0  0  0  0  0  0  0  0  0  0  0
   44.2740   38.7270   28.3390 C   0  0  0  0  0  0  0  0  0  0  0  0
   40.2260   37.9210   25.6560 N   0  0  0  0  0  0  0  0  0  0  0  0
   43.7470   36.4660   29.0250 C   0  0  0  0  0  0  0  0  0  0  0  0
   39.1830   37.3920   25.1770 C   0  0  0  0  0  0  0  0  0  0  0  0
   42.4460   36.6140   28.4630 C   0  0  0  0  0  0  0  0  0  0  0  0
   40.8420   37.7360   27.0320 C   0  0  0  0  0  0  0  0  0  0  0  0
   39.6410   35.5880   27.4100 O   0  0  0  0  0  0  0  0  0  0  0  0
   43.0620   38.7980   27.6530 C   0  0  0  0  0  0  0  0  0  0  0  0
   40.4580   34.2710   29.4660 C   0  0  0  0  0  0  0  0  0  0  0  0
   38.3750   37.9990   24.5300 O   0  0  0  0  0  0  0  0  0  0  0  0
   40.3890   36.4650   26.9720 C   0  0  0  0  0  0  0  0  0  0  0  0
   38.9220   36.2240   25.2950 O   0  0  0  0  0  0  0  0  0  0  0  0
   44.6510   37.5180   28.9640 C   0  0  0  0  0  0  0  0  0  0  0  0
   40.9710   39.6800   24.0120 C   0  0  0  0  0  0  0  0  0  0  0  0
  1  8  1  0
  2  5  1  0
  3 12  1  0
  4 16  2  0
  5  9  1  0
  7 15  1  0
  7  5  1  0
  8  3  1  0
  8  6  2  0
  9 14  1  0
  9  1  1  0
 11  1  2  0
 11  4  1  0
 13  7  2  0
 14 10  2  0
 16  6  1  0
 17  2  1  0
M  END
$$$$

     RDKit          3D

 15 14  0  0  0  0  0  0  0  0999 V2000
   40.9580   35.5850   29.3060 O   0  0  0  0  0  0  0  0  0  0  0  0
   40.1640   36.8270   26.9340 C   0  0  0  0  0  0  0  0  0  0  0  0
   38.9380   37.9690   25.1280 O   0  0  0  0  0  0  0  0  0  0  0  0
   40.7470   36.8160   24.5460 O   0  0  0  0  0  0  0  0  0  0  0  0
   42.5070   37.5750   26.8580 C   0  0  0  0  0  0  0  0  0  0  0  0
   41.8310   36.0550   28.5190 C   0  0  0  0  0  0  0  0  0  0  0  0
   43.4110   37.2060   26.1010 C   0  0  0  0  0  0  0  0  0  0  0  0
   41.8390   38.8170   26.7150 O   0  0  0  0  0  0  0  0  0  0  0  0
   42.4790   39.9870   26.3300 C   0  0  0  0  0  0  0  0  0  0  0  0
   41.5820   36.5760   27.3320 N   0  0  0  0  0  0  0  0  0  0  0  0
   39.3840   35.6530   27.1710 O   0  0  0  0  0  0  0  0  0  0  0  0
   43.2040   35.4870   28.8330 N   0  0  0  0  0  0  0  0  0  0  0  0
   42.1830   40.2180   24.7950 C   0  0  0  0  0  0  0  0  0  0  0  0
   43.3650   40.4990   26.9080 O   0  0  0  0  0  0  0  0  0  0  0  0
   39.8890   37.2390   25.4460 C   0  0  0  0  0  0  0  0  0  0  0  0
  2 11  1  0
  2 10  1  0
  3 15  1  0
  4 15  2  0
  5 10  1  0
  6 12  1  0
  6  1  2  0
  7  5  2  0
  8  5  1  0
  9  8  1  0
  9 14  2  0
 10  6  1  0
 13  9  1  0
 15  2  1  0
M  END
$$$$
