
     RDKit          3D

 24 26  0  0  0  0  0  0  0  0999 V2000
   40.0610   37.2850   32.3990 C   0  0  0  0  0  0  0  0  0  0  0  0
   36.6150   43.2610   29.0620 C   0  0  0  0  0  0  0  0  0  0  0  0
   40.0590   39.4210   30.5810 N   0  0  0  0  0  0  0  0  0  0  0  0
   36.3280   42.8670   27.6180 C   0  0  0  0  0  0  0  0  0  0  0  0
   40.5930   44.3930   31.0030 C   0  0  0  0  0  0  0  0  0  0  0  0
   39.0010   42.9230   29.9660 C   0  0  0  0  0  0  0  0  0  0  0  0
   41.1360   40.6440   31.6580 C   0  0  0  0  0  0  0  0  0  0  0  0
   40.6690   41.9030   31.1710 C   0  0  0  0  0  0  0  0  0  0  0  0
   37.0760   41.5580   27.4160 C   0  0  0  0  0  0  0  0  0  0  0  0
   39.8090   35.9970   32.1580 C   0  0  0  0  0  0  0  0  0  0  0  0
   36.8840   40.6550   26.6210 O   0  0  0  0  0  0  0  0  0  0  0  0
   38.0280   41.4830   28.4420 N   0  0  0  0  0  0  0  0  0  0  0  0
   41.2030   43.1940   31.5190 C   0  0  0  0  0  0  0  0  0  0  0  0
   42.4280   39.8130   31.9140 C   0  0  0  0  0  0  0  0  0  0  0  0
   39.3300   39.7510   28.3620 O   0  0  0  0  0  0  0  0  0  0  0  0
   40.2550   39.5970   32.1150 C   0  0  0  0  0  0  0  0  0  0  0  0
   36.8570   44.0680   26.8580 C   0  0  0  0  0  0  0  0  0  0  0  0
   41.3450   38.5430   33.6760 N   0  0  0  0  0  0  0  0  0  0  0  0
   43.0470   40.4960   33.0310 O   0  0  0  0  0  0  0  0  0  0  0  0
   39.5950   41.6200   30.0440 C   0  0  0  0  0  0  0  0  0  0  0  0
   39.6640   40.2120   29.7150 C   0  0  0  0  0  0  0  0  0  0  0  0
   41.0160   38.2680   32.4490 C   0  0  0  0  0  0  0  0  0  0  0  0
   39.4560   44.3640   30.2840 N   0  0  0  0  0  0  0  0  0  0  0  0
   37.9370   42.6900   29.2080 N   0  0  0  0  0  0  0  0  0  0  0  0
  1 22  1  0
  3 16  1  0
  4 17  1  0
  4  2  1  0
  5 13  2  0
  6 20  1  0
  6 23  1  0
  7 14  1  0
  7 16  1  0
  8 13  1  0
  8  7  1  0
  9  4  1  0
  9 12  1  0
 10  1  2  0
 11  9  2  0
 12 24  1  0
 14 19  1  0
 15 21  2  0
 16 22  1  0
 20 21  1  0
 20  8  1  0
 21  3  1  0
 22 18  1  0
 23  5  1  0
 24  2  1  0
 24  6  1  0
M  END
$$$$

     RDKit          3D

 17 17  0  0  0  0  0  0  0  0999 V2000
   42.0940   39.1010   32.7650 C   0  0  0  0  0  0  0  0  0  0  0  0
   36.4360   43.8000   29.0500 C   0  0  0  0  0  0  0  0  0  0  0  0
   39.5490   41.2660   30.5440 O   0  0  0  0  0  0  0  0  0  0  0  0
   39.9280   39.1890   31.6040 N   0  0  0  0  0  0  0  0  0  0  0  0
   41.8080   37.6870   33.1260 N   0  0  0  0  0  0  0  0  0  0  0  0
   35.9790   42.7820   27.2860 C   0  0  0  0  0  0  0  0  0  0  0  0
   37.1270   42.7240   29.4100 C   0  0  0  0  0  0  0  0  0  0  0  0
   41.6010   40.1960   29.9120 O   0  0  0  0  0  0  0  0  0  0  0  0
   40.7090   39.7560   32.7950 C   0  0  0  0  0  0  0  0  0  0  0  0
   38.0060   41.5190   27.4680 C   0  0  0  0  0  0  0  0  0  0  0  0
   39.8640   37.8260   31.5800 C   0  0  0  0  0  0  0  0  0  0  0  0
   40.4700   37.1150   32.8190 C   0  0  0  0  0  0  0  0  0  0  0  0
   39.5230   42.1800   29.4160 C   0  0  0  0  0  0  0  0  0  0  0  0
   36.8300   42.1860   26.7770 O   0  0  0  0  0  0  0  0  0  0  0  0
   39.5150   39.2440   29.0970 O   0  0  0  0  0  0  0  0  0  0  0  0
   40.1770   39.9660   30.1870 S   0  0  0  0  0  0  0  0  0  0  0  0
   38.1830   42.1150   28.7450 C   0  0  0  0  0  0  0  0  0  0  0  0
  1  9  1  0
  1  5  1  0
  2  7  2  0
  4  9  1  0
  8 16  1  0
 11  4  1  0
 11 12  1  0
 12  5  1  0
 13  3  1  0
 14  6  1  0
 14 10  1  0
 15 16  1  0
 16  3  1  0
 16  4  1  0
 17 10  1  0
 17  7  1  0
 17 13  1  0
M  END
$$$$

     RDKit          3D

 15 14  0  0  0  0  0  0  0  0999 V2000
   41.8740   40.0030   32.0590 C   0  0  0  0  0  0  0  0  0  0  0  0
   39.4480   39.5460   29.2460 O   0  0  0  0  0  0  0  0  0  0  0  0
   38.9560   40.6210   29.9670 C   0  0  0  0  0  0  0  0  0  0  0  0
   41.4390   38.6320   32.5330 C   0  0  0  0  0  0  0  0  0  0  0  0
   39.9670   40.8760   30.9280 N   0  0  0  0  0  0  0  0  0  0  0  0
   38.9270   41.7930   28.9870 C   0  0  0  0  0  0  0  0  0  0  0  0
   40.2200   36.5860   32.3280 C   0  0  0  0  0  0  0  0  0  0  0  0
   38.7320   44.1310   28.5890 C   0  0  0  0  0  0  0  0  0  0  0  0
   41.3370   40.6940   33.0800 O   0  0  0  0  0  0  0  0  0  0  0  0
   38.2500   45.0710   29.4120 F   0  0  0  0  0  0  0  0  0  0  0  0
   38.0830   42.8910   29.1930 C   0  0  0  0  0  0  0  0  0  0  0  0
   40.5100   38.0310   31.7380 N   0  0  0  0  0  0  0  0  0  0  0  0
   41.3200   40.3800   30.7120 C   0  0  0  0  0  0  0  0  0  0  0  0
   36.9870   42.9940   29.5940 O   0  0  0  0  0  0  0  0  0  0  0  0
   41.9180   38.2050   33.5570 O   0  0  0  0  0  0  0  0  0  0  0  0
  1  4  1  0
  1  9  1  0
  3  2  1  0
  3  5  1  0
  4 15  2  0
  6 11  1  0
  6  3  1  0
  8 11  1  0
  8 10  1  0
 11 14  2  0
 12  7  1  0
 12  4  1  0
 13  5  1  0
 13  1  1  0
M  END
$$$$

     RDKit          3D

  9  9  0  0  0  0  0  0  0  0999 V2000
   42.3430   39.6250   31.4120 C   0  0  0  0  0  0  0  0  0  0  0  0
   40.2000   40.8220   31.3070 C   0  0  0  0  0  0  0  0  0  0  0  0
   42.9730   40.7850   31.0330 C   0  0  0  0  0  0  0  0  0  0  0  0
   40.8440   37.5700   32.8400 C   0  0  0  0  0  0  0  0  0  0  0  0
   38.9890   38.2450   31.4430 O   0  0  0  0  0  0  0  0  0  0  0  0
   42.2320   41.9640   30.7620 N   0  0  0  0  0  0  0  0  0  0  0  0
   40.9380   39.6460   31.5510 C   0  0  0  0  0  0  0  0  0  0  0  0
   40.8660   41.9690   30.9180 C   0  0  0  0  0  0  0  0  0  0  0  0
   40.2910   38.4560   31.8700 N   0  0  0  0  0  0  0  0  0  0  0  0
  1  7  1  0
  2  7  2  0
  3  1  2  0
  5  9  1  0
  6  8  2  0
  6  3  1  0
  7  9  1  0
  8  2  1  0
  9  4  1  0
M  END
$$$$

     RDKit          3D

 11 10  0  0  0  0  0  0  0  0999 V2000
   39.9210   41.2170   29.9450 C   0  0  0  0  0  0  0  0  0  0  0  0
   39.5060   44.3720   28.7300 C   0  0  0  0  0  0  0  0  0  0  0  0
   40.0040   42.5920   30.2580 O   0  0  0  0  0  0  0  0  0  0  0  0
   39.0590   43.4820   29.8840 C   0  0  0  0  0  0  0  0  0  0  0  0
   41.2850   40.0380   33.5540 N   0  0  0  0  0  0  0  0  0  0  0  0
   41.2460   39.4870   31.0680 C   0  0  0  0  0  0  0  0  0  0  0  0
   41.2430   40.5480   29.9680 C   0  0  0  0  0  0  0  0  0  0  0  0
   40.4830   37.4310   32.1530 C   0  0  0  0  0  0  0  0  0  0  0  0
   40.0180   38.7090   31.4790 C   0  0  0  0  0  0  0  0  0  0  0  0
   41.9160   40.1080   32.3760 C   0  0  0  0  0  0  0  0  0  0  0  0
   42.2830   40.5600   29.2330 O   0  0  0  0  0  0  0  0  0  0  0  0
  1  7  1  0
  1  3  1  0
  2  4  1  0
  4  3  1  0
  6  9  1  0
  6 10  1  0
  7  6  1  0
  9  8  1  0
 10  5  1  0
 11  7  2  0
M  END
$$$$

     RDKit          3D

 15 17  0  0  0  0  0  0  0  0999 V2000
   39.3280   41.7670   29.6700 C   0  0  0  0  0  0  0  0  0  0  0  0
   42.3970   41.8440   32.7490 C   0  0  0  0  0  0  0  0  0  0  0  0
   39.7060   41.4390   28.3770 O   0  0  0  0  0  0  0  0  0  0  0  0
   38.1160   41.2890   30.0450 O   0  0  0  0  0  0  0  0  0  0  0  0
   40.8280   38.2340   32.5170 C   0  0  0  0  0  0  0  0  0  0  0  0
   40.5450   41.1090   30.7320 C   0  0  0  0  0  0  0  0  0  0  0  0
   40.4430   39.6090   30.1800 C   0  0  0  0  0  0  0  0  0  0  0  0
   41.3310   40.7220   32.1530 C   0  0  0  0  0  0  0  0  0  0  0  0
   41.9690   39.2910   32.3220 C   0  0  0  0  0  0  0  0  0  0  0  0
   44.0590   40.1340   33.5400 C   0  0  0  0  0  0  0  0  0  0  0  0
   39.5300   38.4890   31.3710 S   0  0  0  0  0  0  0  0  0  0  0  0
   41.1770   42.5650   30.7440 C   0  0  0  0  0  0  0  0  0  0  0  0
   42.7170   39.4120   33.5690 N   0  0  0  0  0  0  0  0  0  0  0  0
   43.8930   41.4210   32.5840 C   0  0  0  0  0  0  0  0  0  0  0  0
   42.0940   42.9310   31.8300 O   0  0  0  0  0  0  0  0  0  0  0  0
  1  4  1  0
  2 14  1  0
  3  1  1  0
  6  1  1  0
  6 12  1  0
  6  8  1  0
  7  6  1  0
  7 11  1  0
  8  9  1  0
  8  2  1  0
  9  5  1  0
  9 13  1  0
 10 13  1  0
 11  5  1  0
 12 15  1  0
 14 10  1  0
 15  2  1  0
M  END
$$$$

     RDKit          3D

 11 10  0  0  0  0  0  0  0  0999 V2000
   40.0690   39.2270   31.0500 N   0  0  0  0  0  0  0  0  0  0  0  0
   38.9070   41.3650   30.8230 N   0  0  0  0  0  0  0  0  0  0  0  0
   40.7310   38.9990   33.0100 N   0  0  0  0  0  0  0  0  0  0  0  0
   39.7720   41.4320   29.9640 C   0  0  0  0  0  0  0  0  0  0  0  0
   39.3110   39.4330   29.0640 O   0  0  0  0  0  0  0  0  0  0  0  0
   40.1230   42.8910   30.1560 C   0  0  0  0  0  0  0  0  0  0  0  0
   40.1370   36.7190   32.3010 C   0  0  0  0  0  0  0  0  0  0  0  0
   40.1710   38.2430   31.9690 C   0  0  0  0  0  0  0  0  0  0  0  0
   40.2930   39.8660   29.8430 C   0  0  0  0  0  0  0  0  0  0  0  0
   40.9690   43.8550   29.8120 C   0  0  0  0  0  0  0  0  0  0  0  0
   41.6500   44.7480   31.0820 C   0  0  0  0  0  0  0  0  0  0  0  0
  1  8  1  0
  4  6  1  0
  4  2  2  0
  8  7  1  0
  8  3  2  0
  9  5  1  0
  9  4  1  0
  9  1  1  0
 10  6  1  0
 10 11  1  0
M  END
$$$$

     RDKit          3D

 16 15  0  0  0  0  0  0  0  0999 V2000
   37.7710   42.4880   29.5070 O   0  0  0  0  0  0  0  0  0  0  0  0
   40.5650   40.4250   31.8260 N   0  0  0  0  0  0  0  0  0  0  0  0
   39.3090   44.0620   28.4310 C   0  0  0  0  0  0  0  0  0  0  0  0
   41.5740   42.6670   30.0450 O   0  0  0  0  0  0  0  0  0  0  0  0
   42.3060   38.6370   32.3240 N   0  0  0  0  0  0  0  0  0  0  0  0
   44.2870   39.2970   33.2640 O   0  0  0  0  0  0  0  0  0  0  0  0
   39.0560   40.7270   28.7640 N   0  0  0  0  0  0  0  0  0  0  0  0
   40.8290   38.2900   32.2650 C   0  0  0  0  0  0  0  0  0  0  0  0
   43.2170   39.6830   32.8520 C   0  0  0  0  0  0  0  0  0  0  0  0
   40.7450   40.1470   30.6120 C   0  0  0  0  0  0  0  0  0  0  0  0
   41.1180   40.7880   33.1240 C   0  0  0  0  0  0  0  0  0  0  0  0
   40.1800   42.4290   30.1910 C   0  0  0  0  0  0  0  0  0  0  0  0
   40.4860   36.7420   32.1260 C   0  0  0  0  0  0  0  0  0  0  0  0
   42.6150   41.0480   32.9870 C   0  0  0  0  0  0  0  0  0  0  0  0
   38.9830   43.2190   29.6920 C   0  0  0  0  0  0  0  0  0  0  0  0
   40.0800   41.0330   29.5810 C   0  0  0  0  0  0  0  0  0  0  0  0
  1 15  1  0
  2 11  1  0
  5  9  1  0
  8  5  1  0
  9 14  1  0
  9  6  2  0
 10  2  1  0
 12  4  1  0
 13  8  1  0
 14 11  1  0
 15  3  1  0
 15 12  1  0
 16  7  1  0
 16 12  1  0
 16 10  1  0
M  END
$$$$

     RDKit          3D

 10 11  0  0  0  0  0  0  0  0999 V2000
   40.8740   41.4740   31.6520 C   0  0  0  0  0  0  0  0  0  0  0  0
   42.5880   41.3200   34.0220 O   0  0  0  0  0  0  0  0  0  0  0  0
   39.9620   39.6370   30.3460 C   0  0  0  0  0  0  0  0  0  0  0  0
   39.8450   41.1250   30.5000 C   0  0  0  0  0  0  0  0  0  0  0  0
   42.2910   40.1380   33.3730 C   0  0  0  0  0  0  0  0  0  0  0  0
   40.9710   37.8340   31.9790 N   0  0  0  0  0  0  0  0  0  0  0  0
   41.0680   40.2190   32.4030 C   0  0  0  0  0  0  0  0  0  0  0  0
   40.2210   42.2060   30.8880 N   0  0  0  0  0  0  0  0  0  0  0  0
   41.1210   39.1420   31.3100 C   0  0  0  0  0  0  0  0  0  0  0  0
   39.5990   37.3910   32.2710 C   0  0  0  0  0  0  0  0  0  0  0  0
  1  8  1  0
  1  7  1  0
  3  9  1  0
  4  3  1  0
  4  8  1  0
  4  1  1  0
  5  2  1  0
  6 10  1  0
  7  5  1  0
  9  6  1  0
  9  7  1  0
M  END
$$$$

     RDKit          3D

 14 13  0  0  0  0  0  0  0  0999 V2000
   39.7750   40.4230   29.7360 C   0  0  0  0  0  0  0  0  0  0  0  0
   40.5410   42.2930   32.8120 O   0  0  0  0  0  0  0  0  0  0  0  0
   40.6250   40.0420   33.2130 O   0  0  0  0  0  0  0  0  0  0  0  0
   40.9250   43.5740   29.4220 S   0  0  0  0  0  0  0  0  0  0  0  0
   40.7710   39.6120   31.9320 C   0  0  0  0  0  0  0  0  0  0  0  0
   39.7790   38.4620   31.7800 C   0  0  0  0  0  0  0  0  0  0  0  0
   40.5050   42.0990   31.5360 C   0  0  0  0  0  0  0  0  0  0  0  0
   39.0110   41.3880   29.2990 O   0  0  0  0  0  0  0  0  0  0  0  0
   40.8920   43.4770   30.9720 C   0  0  0  0  0  0  0  0  0  0  0  0
   41.5490   44.4030   32.0290 C   0  0  0  0  0  0  0  0  0  0  0  0
   42.0200   40.6670   30.2280 O   0  0  0  0  0  0  0  0  0  0  0  0
   39.7790   39.3100   29.1770 O   0  0  0  0  0  0  0  0  0  0  0  0
   40.1990   37.3410   32.4390 O   0  0  0  0  0  0  0  0  0  0  0  0
   40.7450   40.7000   30.8640 C   0  0  0  0  0  0  0  0  0  0  0  0
  1 14  1  0
  4  9  2  0
  5  3  1  0
  6  5  1  0
  6 13  1  0
  7  2  1  0
  8  1  1  0
  9  7  1  0
  9 10  1  0
 12  1  2  0
 14 11  1  0
 14  7  1  0
 14  5  1  0
M  END
$$$$

     RDKit          3D

 19 20  0  0  0  0  0  0  0  0999 V2000
   40.9990   40.3850   31.3550 N   0  0  0  0  0  0  0  0  0  0  0  0
   38.5720   43.8510   29.0440 C   0  0  0  0  0  0  0  0  0  0  0  0
   40.4950   43.9170   30.0730 C   0  0  0  0  0  0  0  0  0  0  0  0
   39.8170   39.3050   29.6690 C   0  0  0  0  0  0  0  0  0  0  0  0
   41.3480   38.0440   32.3570 N   0  0  0  0  0  0  0  0  0  0  0  0
   37.5520   44.0130   27.9410 C   0  0  0  0  0  0  0  0  0  0  0  0
   40.2600   45.0250   31.1140 C   0  0  0  0  0  0  0  0  0  0  0  0
   38.6800   42.3620   29.3900 N   0  0  0  0  0  0  0  0  0  0  0  0
   40.2600   37.5960   31.6040 C   0  0  0  0  0  0  0  0  0  0  0  0
   39.4050   38.1500   30.5560 C   0  0  0  0  0  0  0  0  0  0  0  0
   41.1800   42.3380   32.3160 O   0  0  0  0  0  0  0  0  0  0  0  0
   40.7020   41.6730   31.3930 C   0  0  0  0  0  0  0  0  0  0  0  0
   36.4220   42.6140   28.2500 S   0  0  0  0  0  0  0  0  0  0  0  0
   37.2220   42.1060   29.7360 C   0  0  0  0  0  0  0  0  0  0  0  0
   39.9110   42.4500   30.2840 C   0  0  0  0  0  0  0  0  0  0  0  0
   39.0280   39.5430   28.7950 O   0  0  0  0  0  0  0  0  0  0  0  0
   39.9880   36.2170   32.1230 C   0  0  0  0  0  0  0  0  0  0  0  0
   39.8340   44.5090   28.8820 N   0  0  0  0  0  0  0  0  0  0  0  0
   41.0330   39.8130   30.0550 N   0  0  0  0  0  0  0  0  0  0  0  0
  1 12  1  0
  2  6  1  0
  2  8  1  0
  3 15  1  0
  3  7  1  0
  4 19  1  0
  4 10  1  0
  6 13  1  0
  8 14  1  0
  8 15  1  0
  9 17  1  0
  9  5  1  0
 10  9  1  0
 12 11  2  0
 13 14  1  0
 15 12  1  0
 16  4  2  0
 18  2  1  0
 18  3  1  0
 19  1  1  0
M  END
$$$$

     RDKit          3D

 15 15  0  0  0  0  0  0  0  0999 V2000
   38.7570   41.5040   29.7980 C   0  0  0  0  0  0  0  0  0  0  0  0
   38.1680   40.4930   29.3400 O   0  0  0  0  0  0  0  0  0  0  0  0
   40.7050   42.1040   28.0450 O   0  0  0  0  0  0  0  0  0  0  0  0
   41.9150   38.3750   31.8560 N   0  0  0  0  0  0  0  0  0  0  0  0
   40.4940   39.8820   33.2680 O   0  0  0  0  0  0  0  0  0  0  0  0
   40.7960   39.6260   30.3470 O   0  0  0  0  0  0  0  0  0  0  0  0
   43.3460   40.1430   31.0940 C   0  0  0  0  0  0  0  0  0  0  0  0
   44.1010   40.2410   32.2550 O   0  0  0  0  0  0  0  0  0  0  0  0
   42.1570   42.2030   29.6610 O   0  0  0  0  0  0  0  0  0  0  0  0
   40.1420   40.9720   30.1730 C   0  0  0  0  0  0  0  0  0  0  0  0
   41.9180   39.8370   31.5610 C   0  0  0  0  0  0  0  0  0  0  0  0
   40.0650   37.2720   32.2550 C   0  0  0  0  0  0  0  0  0  0  0  0
   41.0470   41.7970   29.2060 C   0  0  0  0  0  0  0  0  0  0  0  0
   40.5920   38.7080   32.4430 C   0  0  0  0  0  0  0  0  0  0  0  0
   38.7360   42.4680   30.6110 O   0  0  0  0  0  0  0  0  0  0  0  0
  1 10  1  0
  1 15  1  0
  2  1  2  0
  3 13  2  0
  4 14  1  0
  6 11  1  0
  7  8  1  0
 10  6  1  0
 11  7  1  0
 11  4  1  0
 11 14  1  0
 13  9  1  0
 13 10  1  0
 14 12  1  0
 14  5  1  0
M  END
$$$$

     RDKit          3D

  7  6  0  0  0  0  0  0  0  0999 V2000
   39.4250   38.5520   31.4260 O   0  0  0  0  0  0  0  0  0  0  0  0
   41.6800   39.1140   31.8740 C   0  0  0  0  0  0  0  0  0  0  0  0
   41.4070   40.6110   31.8470 C   0  0  0  0  0  0  0  0  0  0  0  0
   40.2760   40.9360   31.1310 O   0  0  0  0  0  0  0  0  0  0  0  0
   42.4130   38.8510   33.0500 N   0  0  0  0  0  0  0  0  0  0  0  0
   40.5850   36.9510   32.4490 N   0  0  0  0  0  0  0  0  0  0  0  0
   40.4860   38.1890   31.8830 C   0  0  0  0  0  0  0  0  0  0  0  0
  1  7  2  0
  2  7  1  0
  2  5  1  0
  3  2  1  0
  4  3  1  0
  7  6  1  0
M  END
$$$$

     RDKit          3D

 16 15  0  0  0  0  0  0  0  0999 V2000
   42.3240   40.4040   32.1720 O   0  0  0  0  0  0  0  0  0  0  0  0
   39.8230   39.8910   30.0830 N   0  0  0  0  0  0  0  0  0  0  0  0
   40.6960   40.5470   30.6100 C   0  0  0  0  0  0  0  0  0  0  0  0
   40.2320   36.5960   32.7870 C   0  0  0  0  0  0  0  0  0  0  0  0
   42.2020   37.9980   33.5840 N   0  0  0  0  0  0  0  0  0  0  0  0
   41.4630   39.9020   31.5800 C   0  0  0  0  0  0  0  0  0  0  0  0
   38.5530   40.3190   30.1050 C   0  0  0  0  0  0  0  0  0  0  0  0
   41.8500   42.5480   30.3170 O   0  0  0  0  0  0  0  0  0  0  0  0
   39.5370   42.8640   29.8520 C   0  0  0  0  0  0  0  0  0  0  0  0
   40.5950   42.0520   30.2160 C   0  0  0  0  0  0  0  0  0  0  0  0
   40.1350   43.4690   28.7200 O   0  0  0  0  0  0  0  0  0  0  0  0
   41.2570   37.8520   32.8400 C   0  0  0  0  0  0  0  0  0  0  0  0
   38.2170   43.3100   29.1410 C   0  0  0  0  0  0  0  0  0  0  0  0
   38.2880   41.0420   29.1370 O   0  0  0  0  0  0  0  0  0  0  0  0
   37.9550   44.6750   28.5350 O   0  0  0  0  0  0  0  0  0  0  0  0
   41.1030   38.5950   31.8050 N   0  0  0  0  0  0  0  0  0  0  0  0
  2  7  1  0
  3  2  1  0
  3  6  1  0
  4 12  1  0
  6 16  1  0
  6  1  2  0
  9 11  1  0
  9 10  1  0
 10  8  1  0
 10  3  1  0
 12  5  2  0
 13  9  1  0
 14  7  1  0
 15 13  1  0
 16 12  1  0
M  END
$$$$

     RDKit          3D

  8  8  0  0  0  0  0  0  0  0999 V2000
   40.0210   39.6350   30.9890 C   0  0  0  0  0  0  0  0  0  0  0  0
   39.9720   36.7930   31.7220 C   0  0  0  0  0  0  0  0  0  0  0  0
   40.1810   40.9450   30.5100 C   0  0  0  0  0  0  0  0  0  0  0  0
   41.8780   40.0390   32.5050 C   0  0  0  0  0  0  0  0  0  0  0  0
   42.0120   41.2770   32.0630 N   0  0  0  0  0  0  0  0  0  0  0  0
   41.2080   41.7490   31.0480 C   0  0  0  0  0  0  0  0  0  0  0  0
   40.8030   37.8170   32.5960 C   0  0  0  0  0  0  0  0  0  0  0  0
   40.8680   39.1520   31.9950 N   0  0  0  0  0  0  0  0  0  0  0  0
  1  8  1  0
  2  7  1  0
  3  1  1  0
  3  6  2  0
  5  4  2  0
  6  5  1  0
  8  4  1  0
  8  7  1  0
M  END
$$$$

     RDKit          3D

 13 13  0  0  0  0  0  0  0  0999 V2000
   43.7870   41.3370   31.6520 O   0  0  0  0  0  0  0  0  0  0  0  0
   40.5980   39.1400   31.7130 C   0  0  0  0  0  0  0  0  0  0  0  0
   39.6380   39.6300   30.4820 C   0  0  0  0  0  0  0  0  0  0  0  0
   40.4900   37.7530   32.2990 O   0  0  0  0  0  0  0  0  0  0  0  0
   41.4490   42.1430   31.2850 C   0  0  0  0  0  0  0  0  0  0  0  0
   42.9630   38.8770   32.3760 O   0  0  0  0  0  0  0  0  0  0  0  0
   40.2410   41.8220   30.5560 N   0  0  0  0  0  0  0  0  0  0  0  0
   39.4500   39.2270   29.1210 O   0  0  0  0  0  0  0  0  0  0  0  0
   42.5610   41.0070   31.4440 C   0  0  0  0  0  0  0  0  0  0  0  0
   39.0560   41.0180   30.6990 C   0  0  0  0  0  0  0  0  0  0  0  0
   38.0230   41.3600   29.6270 C   0  0  0  0  0  0  0  0  0  0  0  0
   42.1560   39.4500   31.4310 C   0  0  0  0  0  0  0  0  0  0  0  0
   41.8750   43.5080   31.2550 O   0  0  0  0  0  0  0  0  0  0  0  0
  2  4  1  0
  3  8  1  0
  3 10  1  0
  3  2  1  0
  5  9  1  0
  7 10  1  0
  7  5  1  0
  9  1  1  0
 10 11  1  0
 12  9  1  0
 12  2  1  0
 12  6  1  0
 13  5  2  0
M  END
$$$$

     RDKit          3D

 12 12  0  0  0  0  0  0  0  0999 V2000
   40.7190   41.4970   31.1220 C   0  0  0  0  0  0  0  0  0  0  0  0
   40.4660   37.5990   32.5950 C   0  0  0  0  0  0  0  0  0  0  0  0
   38.4770   40.9550   28.5530 O   0  0  0  0  0  0  0  0  0  0  0  0
   40.6480   40.0730   31.2680 C   0  0  0  0  0  0  0  0  0  0  0  0
   41.7690   39.8010   32.3200 C   0  0  0  0  0  0  0  0  0  0  0  0
   42.3420   40.7690   32.9820 O   0  0  0  0  0  0  0  0  0  0  0  0
   41.7400   38.4060   32.9040 C   0  0  0  0  0  0  0  0  0  0  0  0
   40.0440   39.5880   29.5870 O   0  0  0  0  0  0  0  0  0  0  0  0
   39.2580   40.7900   29.4580 C   0  0  0  0  0  0  0  0  0  0  0  0
   39.4260   41.7760   30.3310 C   0  0  0  0  0  0  0  0  0  0  0  0
   41.9370   38.6750   34.3840 C   0  0  0  0  0  0  0  0  0  0  0  0
   43.5910   40.8420   32.4320 C   0  0  0  0  0  0  0  0  0  0  0  0
  1  4  1  0
  2  7  1  0
  3  9  2  0
  4  5  1  0
  5  7  1  0
  5  6  1  0
  7 11  1  0
  8  4  1  0
  9  8  1  0
  9 10  1  0
 10  1  1  0
 12  6  1  0
M  END
$$$$

     RDKit          3D

 10 10  0  0  0  0  0  0  0  0999 V2000
   39.8450   42.2120   29.0770 O   0  0  0  0  0  0  0  0  0  0  0  0
   41.7850   40.7400   31.8680 C   0  0  0  0  0  0  0  0  0  0  0  0
   39.2800   38.9640   30.8770 N   0  0  0  0  0  0  0  0  0  0  0  0
   41.4010   42.9990   31.2490 N   0  0  0  0  0  0  0  0  0  0  0  0
   40.7290   41.6740   31.2570 C   0  0  0  0  0  0  0  0  0  0  0  0
   40.2280   41.0700   29.8610 C   0  0  0  0  0  0  0  0  0  0  0  0
   40.0770   38.7210   32.0790 C   0  0  0  0  0  0  0  0  0  0  0  0
   40.2890   37.3200   32.3980 N   0  0  0  0  0  0  0  0  0  0  0  0
   41.4770   39.3480   32.1080 C   0  0  0  0  0  0  0  0  0  0  0  0
   39.0840   40.1860   30.0450 C   0  0  0  0  0  0  0  0  0  0  0  0
  2  9  2  0
  3  7  1  0
  5  4  1  0
  5  2  1  0
  6  1  1  0
  6 10  1  0
  6  5  1  0
  7  9  1  0
  7  8  1  0
 10  3  1  0
M  END
$$$$

     RDKit          3D

 10 10  0  0  0  0  0  0  0  0999 V2000
   40.0490   39.0130   31.9670 N   0  0  0  0  0  0  0  0  0  0  0  0
   41.5790   42.2820   32.0900 C   0  0  0  0  0  0  0  0  0  0  0  0
   40.3000   42.3520   30.0550 C   0  0  0  0  0  0  0  0  0  0  0  0
   40.0320   36.5240   32.0910 C   0  0  0  0  0  0  0  0  0  0  0  0
   40.4120   40.2870   31.4410 C   0  0  0  0  0  0  0  0  0  0  0  0
   39.9550   37.7750   31.2920 C   0  0  0  0  0  0  0  0  0  0  0  0
   39.7800   37.8030   30.0000 O   0  0  0  0  0  0  0  0  0  0  0  0
   41.0190   42.9330   31.0700 N   0  0  0  0  0  0  0  0  0  0  0  0
   40.0050   40.9720   30.2760 C   0  0  0  0  0  0  0  0  0  0  0  0
   41.2540   40.9430   32.3190 C   0  0  0  0  0  0  0  0  0  0  0  0
  2 10  1  0
  3  9  2  0
  3  8  1  0
  5  1  1  0
  5 10  2  0
  6  1  1  0
  6  4  1  0
  7  6  2  0
  8  2  2  0
  9  5  1  0
M  END
$$$$

     RDKit          3D

 15 16  0  0  0  0  0  0  0  0999 V2000
   38.4280   41.1870   29.0260 C   0  0  0  0  0  0  0  0  0  0  0  0
   41.5550   38.2030   32.9110 C   0  0  0  0  0  0  0  0  0  0  0  0
   43.2710   39.3230   30.8400 O   0  0  0  0  0  0  0  0  0  0  0  0
   39.7940   40.7510   29.6650 C   0  0  0  0  0  0  0  0  0  0  0  0
   39.6010   43.2190   29.8770 C   0  0  0  0  0  0  0  0  0  0  0  0
   41.2070   39.4570   32.1140 C   0  0  0  0  0  0  0  0  0  0  0  0
   42.7450   41.5370   29.4520 O   0  0  0  0  0  0  0  0  0  0  0  0
   40.0150   43.7550   28.6120 O   0  0  0  0  0  0  0  0  0  0  0  0
   40.2920   38.9190   30.8950 C   0  0  0  0  0  0  0  0  0  0  0  0
   42.0320   41.3580   30.4570 C   0  0  0  0  0  0  0  0  0  0  0  0
   38.2220   42.6170   29.5670 C   0  0  0  0  0  0  0  0  0  0  0  0
   40.5070   41.9670   30.3100 C   0  0  0  0  0  0  0  0  0  0  0  0
   40.5480   37.1550   32.6290 N   0  0  0  0  0  0  0  0  0  0  0  0
   39.4660   39.9470   30.7920 O   0  0  0  0  0  0  0  0  0  0  0  0
   42.3710   40.2060   31.4560 C   0  0  0  0  0  0  0  0  0  0  0  0
  1 11  1  0
  4  1  1  0
  4 12  1  0
  4 14  1  0
  5  8  1  0
  5 12  1  0
  6  2  1  0
  7 10  2  0
  9  6  1  0
 10 15  1  0
 11  5  1  0
 12 10  1  0
 13  2  1  0
 14  9  1  0
 15  3  1  0
 15  6  1  0
M  END
$$$$
