
     RDKit          3D

 10  9  0  0  0  0  0  0  0  0999 V2000
   41.0280   38.1450   25.5220 P   0  0  0  0  0  0  0  0  0  0  0  0
   43.1900   36.7430   24.1610 F   0  0  0  0  0  0  0  0  0  0  0  0
   40.6640   35.3940   28.0900 C   0  0  0  0  0  0  0  0  0  0  0  0
   42.7770   37.5670   25.2180 C   0  0  0  0  0  0  0  0  0  0  0  0
   40.7490   39.3790   26.4770 O   0  0  0  0  0  0  0  0  0  0  0  0
   40.2890   36.9930   26.3130 C   0  0  0  0  0  0  0  0  0  0  0  0
   41.7230   35.6660   25.7180 N   0  0  0  0  0  0  0  0  0  0  0  0
   41.1010   35.7960   26.8480 C   0  0  0  0  0  0  0  0  0  0  0  0
   44.2840   37.5530   26.9360 O   0  0  0  0  0  0  0  0  0  0  0  0
   43.3360   36.9020   26.4470 C   0  0  0  0  0  0  0  0  0  0  0  0
  1  6  1  0
  1  5  1  0
  4  2  1  0
  4  1  1  0
  4 10  1  0
  6  8  1  0
  7  8  2  0
  8  3  1  0
 10  9  1  0
M  END
$$$$

     RDKit          3D

 12 12  0  0  0  0  0  0  0  0999 V2000
   42.1280   34.8730   27.7250 O   0  0  0  0  0  0  0  0  0  0  0  0
   41.0900   39.3560   25.9730 C   0  0  0  0  0  0  0  0  0  0  0  0
   41.0090   38.9710   23.4110 O   0  0  0  0  0  0  0  0  0  0  0  0
   40.3170   36.1960   27.0350 C   0  0  0  0  0  0  0  0  0  0  0  0
   40.8850   35.3930   28.0400 C   0  0  0  0  0  0  0  0  0  0  0  0
   40.6910   39.6190   27.2780 O   0  0  0  0  0  0  0  0  0  0  0  0
   42.1610   37.1170   24.0210 C   0  0  0  0  0  0  0  0  0  0  0  0
   41.1730   36.8460   26.0610 C   0  0  0  0  0  0  0  0  0  0  0  0
   40.8040   37.7620   24.0710 C   0  0  0  0  0  0  0  0  0  0  0  0
   40.8920   38.0090   25.5160 C   0  0  0  0  0  0  0  0  0  0  0  0
   42.5090   36.6930   22.7060 O   0  0  0  0  0  0  0  0  0  0  0  0
   42.3000   36.2990   25.2830 O   0  0  0  0  0  0  0  0  0  0  0  0
  1  5  1  0
  2  6  1  0
  4  5  1  0
  7 11  1  0
  7  9  1  0
  7 12  1  0
  8  4  1  0
  9  3  1  0
  9 10  1  0
 10  2  1  0
 10  8  1  0
 12  8  1  0
M  END
$$$$

     RDKit          3D

 12 12  0  0  0  0  0  0  0  0999 V2000
   43.3090   36.2340   26.0680 C   0  0  0  0  0  0  0  0  0  0  0  0
   40.6270   35.5380   26.7150 N   0  0  0  0  0  0  0  0  0  0  0  0
   42.5950   38.2480   27.3000 O   0  0  0  0  0  0  0  0  0  0  0  0
   39.1900   36.2050   25.0580 O   0  0  0  0  0  0  0  0  0  0  0  0
   41.0090   36.8470   23.2920 O   0  0  0  0  0  0  0  0  0  0  0  0
   40.0600   36.1850   25.8410 C   0  0  0  0  0  0  0  0  0  0  0  0
   41.0250   38.1030   23.9810 C   0  0  0  0  0  0  0  0  0  0  0  0
   40.8930   37.0260   26.5780 C   0  0  0  0  0  0  0  0  0  0  0  0
   41.0210   34.9440   27.9450 C   0  0  0  0  0  0  0  0  0  0  0  0
   42.2790   37.3670   26.1180 C   0  0  0  0  0  0  0  0  0  0  0  0
   42.3870   38.1730   24.7750 C   0  0  0  0  0  0  0  0  0  0  0  0
   43.7480   38.9990   24.9380 C   0  0  0  0  0  0  0  0  0  0  0  0
  2  9  1  0
  4  6  2  0
  5  7  1  0
  6  8  1  0
  6  2  1  0
  7 11  1  0
  8 10  1  0
  8  2  1  0
 10  1  1  0
 10  3  1  0
 11 12  1  0
 11 10  1  0
M  END
$$$$

     RDKit          3D

  9  8  0  0  0  0  0  0  0  0999 V2000
   41.1590   35.4000   28.0990 C   0  0  0  0  0  0  0  0  0  0  0  0
   43.5240   35.6880   27.6420 C   0  0  0  0  0  0  0  0  0  0  0  0
   42.6310   36.4120   24.9640 O   0  0  0  0  0  0  0  0  0  0  0  0
   42.3190   36.1970   27.7510 C   0  0  0  0  0  0  0  0  0  0  0  0
   42.1580   37.6070   27.6270 N   0  0  0  0  0  0  0  0  0  0  0  0
   41.4720   38.0370   26.5480 C   0  0  0  0  0  0  0  0  0  0  0  0
   40.1830   36.8390   25.0790 C   0  0  0  0  0  0  0  0  0  0  0  0
   41.4750   37.0260   25.4030 C   0  0  0  0  0  0  0  0  0  0  0  0
   40.9110   39.0780   26.4760 O   0  0  0  0  0  0  0  0  0  0  0  0
  2  4  2  0
  3  8  1  0
  4  1  1  0
  5  4  1  0
  6  5  1  0
  7  8  2  0
  8  6  1  0
  9  6  2  0
M  END
$$$$

     RDKit          3D

 15 15  0  0  0  0  0  0  0  0999 V2000
   39.7050   36.7780   24.6250 C   0  0  0  0  0  0  0  0  0  0  0  0
   39.5900   36.9650   23.1640 N   0  0  0  0  0  0  0  0  0  0  0  0
   35.9720   37.2930   23.0220 N   0  0  0  0  0  0  0  0  0  0  0  0
   38.3170   36.7290   22.4690 C   0  0  0  0  0  0  0  0  0  0  0  0
   40.5460   39.0640   22.6390 C   0  0  0  0  0  0  0  0  0  0  0  0
   34.2780   38.9420   22.6060 C   0  0  0  0  0  0  0  0  0  0  0  0
   40.7480   34.8530   28.1460 N   0  0  0  0  0  0  0  0  0  0  0  0
   39.5510   37.5050   25.7690 C   0  0  0  0  0  0  0  0  0  0  0  0
   40.1450   35.5450   24.8170 C   0  0  0  0  0  0  0  0  0  0  0  0
   40.4030   35.6960   27.0660 C   0  0  0  0  0  0  0  0  0  0  0  0
   40.0050   36.9650   26.9450 N   0  0  0  0  0  0  0  0  0  0  0  0
   34.9760   38.1500   23.6950 C   0  0  0  0  0  0  0  0  0  0  0  0
   37.3590   37.7440   23.0880 C   0  0  0  0  0  0  0  0  0  0  0  0
   40.3980   35.1300   25.9780 N   0  0  0  0  0  0  0  0  0  0  0  0
   40.6600   37.6030   22.3760 C   0  0  0  0  0  0  0  0  0  0  0  0
  1  9  1  0
  1  8  2  0
  2  1  1  0
  3 13  1  0
  3 12  1  0
  4 13  1  0
  4  2  1  0
  6 12  1  0
  8 11  1  0
  9 14  2  0
 10  7  1  0
 11 10  2  0
 14 10  1  0
 15  5  1  0
 15  2  1  0
M  END
$$$$

     RDKit          3D

 28 29  0  0  0  0  0  0  0  0999 V2000
   41.5370   36.6010   25.3060 C   0  0  0  0  0  0  0  0  0  0  0  0
   39.8740   33.8630   28.5290 C   0  0  0  0  0  0  0  0  0  0  0  0
   34.6210   36.1820   30.5370 C   0  0  0  0  0  0  0  0  0  0  0  0
   39.5810   36.4690   23.8270 C   0  0  0  0  0  0  0  0  0  0  0  0
   35.2880   35.4590   31.5310 C   0  0  0  0  0  0  0  0  0  0  0  0
   34.3470   34.5810   32.0840 C   0  0  0  0  0  0  0  0  0  0  0  0
   33.2670   36.1860   30.6110 C   0  0  0  0  0  0  0  0  0  0  0  0
   37.7450   32.0700   30.4240 N   0  0  0  0  0  0  0  0  0  0  0  0
   35.6840   31.2930   29.2180 O   0  0  0  0  0  0  0  0  0  0  0  0
   40.4030   37.0040   27.1780 N   0  0  0  0  0  0  0  0  0  0  0  0
   35.6730   31.6850   30.4020 C   0  0  0  0  0  0  0  0  0  0  0  0
   36.8210   30.9040   32.1540 O   0  0  0  0  0  0  0  0  0  0  0  0
   33.1790   35.0770   32.6240 C   0  0  0  0  0  0  0  0  0  0  0  0
   39.9140   36.0770   28.1470 C   0  0  0  0  0  0  0  0  0  0  0  0
   36.9300   31.2960   30.9120 C   0  0  0  0  0  0  0  0  0  0  0  0
   39.7030   35.2630   23.4660 O   0  0  0  0  0  0  0  0  0  0  0  0
   34.8510   32.5370   30.9710 C   0  0  0  0  0  0  0  0  0  0  0  0
   39.0450   38.8700   24.3830 O   0  0  0  0  0  0  0  0  0  0  0  0
   39.5010   38.1270   26.9470 C   0  0  0  0  0  0  0  0  0  0  0  0
   38.7080   37.1310   23.2760 O   0  0  0  0  0  0  0  0  0  0  0  0
   39.7250   38.2210   25.4670 C   0  0  0  0  0  0  0  0  0  0  0  0
   40.3100   37.1140   24.9440 C   0  0  0  0  0  0  0  0  0  0  0  0
   38.8880   33.4720   29.8410 S   0  0  0  0  0  0  0  0  0  0  0  0
   40.6770   35.1140   28.7170 C   0  0  0  0  0  0  0  0  0  0  0  0
   32.5380   36.1840   31.9050 C   0  0  0  0  0  0  0  0  0  0  0  0
   34.4370   33.2400   31.7570 C   0  0  0  0  0  0  0  0  0  0  0  0
   41.6700   37.0140   26.7520 C   0  0  0  0  0  0  0  0  0  0  0  0
   39.0850   34.0660   27.6490 O   0  0  0  0  0  0  0  0  0  0  0  0
  1 27  1  0
  2 28  1  0
  2 24  1  0
  2 23  1  0
  3  7  1  0
  3  5  1  0
  5  6  1  0
  6 13  1  0
  7 25  1  0
  8 15  1  0
  9 11  1  0
 10 14  1  0
 11 15  1  0
 11 17  2  0
 14 24  1  0
 15 12  2  0
 16  4  1  0
 17 26  2  0
 19 10  1  0
 20  4  2  0
 21 18  1  0
 21 19  1  0
 22  4  1  0
 22  1  1  0
 22 21  1  0
 23  8  1  0
 25 13  1  0
 26  6  1  0
 27 10  1  0
M  END
$$$$

     RDKit          3D

 20 21  0  0  0  0  0  0  0  0999 V2000
   43.0070   38.0230   27.2280 O   0  0  0  0  0  0  0  0  0  0  0  0
   40.0400   36.9480   25.9560 C   0  0  0  0  0  0  0  0  0  0  0  0
   41.3320   36.6610   26.8030 C   0  0  0  0  0  0  0  0  0  0  0  0
   37.2870   37.9210   22.6750 C   0  0  0  0  0  0  0  0  0  0  0  0
   39.6180   38.3890   25.8170 O   0  0  0  0  0  0  0  0  0  0  0  0
   38.7710   35.1130   23.9580 S   0  0  0  0  0  0  0  0  0  0  0  0
   36.6440   36.2930   21.1500 O   0  0  0  0  0  0  0  0  0  0  0  0
   40.1140   35.0920   28.2750 C   0  0  0  0  0  0  0  0  0  0  0  0
   41.2690   35.7640   27.8900 C   0  0  0  0  0  0  0  0  0  0  0  0
   38.1590   38.0390   23.6550 C   0  0  0  0  0  0  0  0  0  0  0  0
   35.9010   38.4420   23.2330 C   0  0  0  0  0  0  0  0  0  0  0  0
   35.0070   38.0800   22.2440 O   0  0  0  0  0  0  0  0  0  0  0  0
   39.8260   36.4790   24.5360 C   0  0  0  0  0  0  0  0  0  0  0  0
   38.9920   37.6420   24.6810 C   0  0  0  0  0  0  0  0  0  0  0  0
   37.1270   37.4600   21.3660 C   0  0  0  0  0  0  0  0  0  0  0  0
   40.9810   36.3630   23.5720 C   0  0  0  0  0  0  0  0  0  0  0  0
   43.5990   36.0420   26.0920 C   0  0  0  0  0  0  0  0  0  0  0  0
   37.4010   38.1070   20.3060 N   0  0  0  0  0  0  0  0  0  0  0  0
   44.8440   36.6720   25.7200 O   0  0  0  0  0  0  0  0  0  0  0  0
   42.5490   37.1090   26.4970 C   0  0  0  0  0  0  0  0  0  0  0  0
  2  3  1  0
  3  9  2  3
  4 11  1  0
  4 10  1  0
  5  2  1  0
  6 13  1  0
  7 15  2  0
  9  8  1  0
 12 11  1  0
 13 16  1  0
 13 14  1  0
 13  2  1  0
 14 10  1  0
 14  5  1  0
 14  2  1  0
 15  4  1  0
 17 20  1  0
 18 15  1  0
 19 17  1  0
 20  3  1  0
 20  1  2  0
M  END
$$$$

     RDKit          3D

 13 13  0  0  0  0  0  0  0  0999 V2000
   40.7770   34.3660   28.0100 C   0  0  0  0  0  0  0  0  0  0  0  0
   40.7340   35.5580   27.3430 C   0  0  0  0  0  0  0  0  0  0  0  0
   41.3730   37.1860   23.4800 C   0  0  0  0  0  0  0  0  0  0  0  0
   40.6030   38.3910   22.9480 C   0  0  0  0  0  0  0  0  0  0  0  0
   42.8480   37.5030   23.8640 P   0  0  0  0  0  0  0  0  0  0  0  0
   40.1370   38.3850   26.1110 C   0  0  0  0  0  0  0  0  0  0  0  0
   43.0030   36.4980   22.7140 O   0  0  0  0  0  0  0  0  0  0  0  0
   43.5200   38.7470   23.4890 O   0  0  0  0  0  0  0  0  0  0  0  0
   40.0530   36.9230   25.5370 C   0  0  0  0  0  0  0  0  0  0  0  0
   43.1530   37.0930   25.4020 O   0  0  0  0  0  0  0  0  0  0  0  0
   40.4790   36.3700   24.3820 N   0  0  0  0  0  0  0  0  0  0  0  0
   40.7150   37.8130   27.4450 O   0  0  0  0  0  0  0  0  0  0  0  0
   40.4630   36.5670   26.7900 C   0  0  0  0  0  0  0  0  0  0  0  0
  2  1  1  0
  3  4  1  0
  3  5  1  0
  3 11  1  0
  5 10  1  0
  6 12  1  0
  7  5  2  0
  8  5  1  0
  9 11  1  0
  9  6  1  0
  9 13  1  0
 13  2  1  0
 13 12  1  0
M  END
$$$$

     RDKit          3D

  6  5  0  0  0  0  0  0  0  0999 V2000
   40.1990   37.0380   24.8470 C   0  0  0  0  0  0  0  0  0  0  0  0
   40.9290   38.7890   27.3030 S   0  0  0  0  0  0  0  0  0  0  0  0
   42.4080   37.2140   25.6300 C   0  0  0  0  0  0  0  0  0  0  0  0
   41.4170   35.4250   27.9140 O   0  0  0  0  0  0  0  0  0  0  0  0
   40.9820   37.1900   26.1900 C   0  0  0  0  0  0  0  0  0  0  0  0
   40.4940   36.0560   27.1430 C   0  0  0  0  0  0  0  0  0  0  0  0
  1  5  1  0
  3  5  1  0
  5  6  1  0
  5  2  1  0
  6  4  1  0
M  END
$$$$

     RDKit          3D

 21 22  0  0  0  0  0  0  0  0999 V2000
   36.1090   36.3640   22.7310 C   0  0  0  0  0  0  0  0  0  0  0  0
   40.5440   37.6830   26.4960 O   0  0  0  0  0  0  0  0  0  0  0  0
   34.9770   38.8810   22.4780 S   0  0  0  0  0  0  0  0  0  0  0  0
   42.4050   35.9000   26.2370 N   0  0  0  0  0  0  0  0  0  0  0  0
   39.8080   35.5570   25.7890 O   0  0  0  0  0  0  0  0  0  0  0  0
   40.5690   36.5620   23.1750 C   0  0  0  0  0  0  0  0  0  0  0  0
   40.8590   36.5490   25.7180 P   0  0  0  0  0  0  0  0  0  0  0  0
   37.7620   38.1710   23.1690 S   0  0  0  0  0  0  0  0  0  0  0  0
   42.9730   35.5580   28.4300 N   0  0  0  0  0  0  0  0  0  0  0  0
   44.3670   36.8780   27.0410 O   0  0  0  0  0  0  0  0  0  0  0  0
   36.3340   37.7410   22.7970 C   0  0  0  0  0  0  0  0  0  0  0  0
   43.4670   36.9020   26.1740 C   0  0  0  0  0  0  0  0  0  0  0  0
   34.1900   38.9970   24.0310 C   0  0  0  0  0  0  0  0  0  0  0  0
   37.2240   35.4880   22.7140 C   0  0  0  0  0  0  0  0  0  0  0  0
   38.3260   36.0720   23.1500 C   0  0  0  0  0  0  0  0  0  0  0  0
   43.7800   37.5500   24.8040 C   0  0  0  0  0  0  0  0  0  0  0  0
   42.8100   36.6780   23.9240 C   0  0  0  0  0  0  0  0  0  0  0  0
   40.6690   34.6930   28.3690 C   0  0  0  0  0  0  0  0  0  0  0  0
   41.5850   36.7300   24.2350 C   0  0  0  0  0  0  0  0  0  0  0  0
   41.8570   35.3370   27.5850 C   0  0  0  0  0  0  0  0  0  0  0  0
   39.0930   37.0350   23.3960 C   0  0  0  0  0  0  0  0  0  0  0  0
  1 11  2  0
  3 11  1  0
  3 13  1  0
  4 20  1  0
  7  5  2  0
  7  4  1  0
  7  2  1  0
  8 21  1  0
 11  8  1  0
 12  4  1  0
 12 10  2  0
 14  1  1  0
 14 15  1  0
 15 21  1  0
 16 12  1  0
 17 19  1  0
 17 16  1  0
 19  6  1  0
 19  7  1  0
 20 18  1  0
 20  9  1  0
 21  6  1  0
M  END
$$$$

     RDKit          3D

 12 12  0  0  0  0  0  0  0  0999 V2000
   40.5500   38.5010   23.7450 N   0  0  0  0  0  0  0  0  0  0  0  0
   40.4390   34.8320   27.8850 C   0  0  0  0  0  0  0  0  0  0  0  0
   42.2720   36.1240   27.6710 C   0  0  0  0  0  0  0  0  0  0  0  0
   42.3400   37.1500   24.1710 C   0  0  0  0  0  0  0  0  0  0  0  0
   41.2720   38.8320   27.0460 O   0  0  0  0  0  0  0  0  0  0  0  0
   41.3150   38.3570   22.5230 C   0  0  0  0  0  0  0  0  0  0  0  0
   40.3430   36.6080   26.4330 C   0  0  0  0  0  0  0  0  0  0  0  0
   40.8280   36.1880   27.7060 N   0  0  0  0  0  0  0  0  0  0  0  0
   41.3060   38.0050   24.8000 C   0  0  0  0  0  0  0  0  0  0  0  0
   40.5440   38.0730   26.1240 C   0  0  0  0  0  0  0  0  0  0  0  0
   42.2130   37.3850   22.7930 C   0  0  0  0  0  0  0  0  0  0  0  0
   42.8620   36.7360   26.5070 N   0  0  0  0  0  0  0  0  0  0  0  0
  1  9  1  0
  3  8  1  0
  4  9  1  0
  6 11  1  0
  6  1  1  0
  7  8  1  0
  8  2  1  0
  9 10  1  0
 10  7  1  0
 10  5  1  0
 11  4  1  0
 12  3  1  0
M  END
$$$$

     RDKit          3D

 13 13  0  0  0  0  0  0  0  0999 V2000
   41.0640   37.6220   22.4410 C   0  0  0  0  0  0  0  0  0  0  0  0
   39.4560   35.8310   24.7390 O   0  0  0  0  0  0  0  0  0  0  0  0
   42.2170   37.5160   24.6470 C   0  0  0  0  0  0  0  0  0  0  0  0
   39.6880   37.0270   25.5720 C   0  0  0  0  0  0  0  0  0  0  0  0
   40.8720   36.5640   26.3530 C   0  0  0  0  0  0  0  0  0  0  0  0
   43.5760   37.8810   24.3620 O   0  0  0  0  0  0  0  0  0  0  0  0
   42.3140   37.4130   21.8800 O   0  0  0  0  0  0  0  0  0  0  0  0
   43.1710   35.8700   26.3360 O   0  0  0  0  0  0  0  0  0  0  0  0
   42.1680   36.7100   25.9230 C   0  0  0  0  0  0  0  0  0  0  0  0
   40.9600   34.7930   28.1320 C   0  0  0  0  0  0  0  0  0  0  0  0
   40.5320   35.6660   27.2560 C   0  0  0  0  0  0  0  0  0  0  0  0
   41.2260   38.0400   23.8800 C   0  0  0  0  0  0  0  0  0  0  0  0
   39.9760   38.0740   24.6020 O   0  0  0  0  0  0  0  0  0  0  0  0
  3  6  1  0
  3  9  1  0
  4  2  1  0
  4  5  1  0
  5 11  1  0
  7  1  1  0
  9  8  1  0
  9  5  1  0
 11 10  2  0
 12  1  1  0
 12 13  1  0
 12  3  1  0
 13  4  1  0
M  END
$$$$

     RDKit          3D

 18 18  0  0  0  0  0  0  0  0999 V2000
   42.6440   36.0630   27.6310 C   0  0  0  0  0  0  0  0  0  0  0  0
   41.0460   34.3280   28.5380 F   0  0  0  0  0  0  0  0  0  0  0  0
   42.3460   37.1200   26.5840 C   0  0  0  0  0  0  0  0  0  0  0  0
   36.3850   36.8530   22.6110 C   0  0  0  0  0  0  0  0  0  0  0  0
   36.9910   38.7790   23.9390 C   0  0  0  0  0  0  0  0  0  0  0  0
   42.0190   36.1230   28.7580 N   0  0  0  0  0  0  0  0  0  0  0  0
   41.5510   37.8650   24.1130 O   0  0  0  0  0  0  0  0  0  0  0  0
   40.9950   36.8100   26.1510 N   0  0  0  0  0  0  0  0  0  0  0  0
   39.9270   36.3620   27.0350 C   0  0  0  0  0  0  0  0  0  0  0  0
   38.2190   38.2450   24.2290 N   0  0  0  0  0  0  0  0  0  0  0  0
   39.8670   36.3450   23.9820 C   0  0  0  0  0  0  0  0  0  0  0  0
   40.1090   34.2050   26.6490 F   0  0  0  0  0  0  0  0  0  0  0  0
   38.5800   37.0320   23.6700 C   0  0  0  0  0  0  0  0  0  0  0  0
   40.8030   37.1310   24.7310 C   0  0  0  0  0  0  0  0  0  0  0  0
   36.0360   38.1380   23.1330 C   0  0  0  0  0  0  0  0  0  0  0  0
   40.2090   35.0420   27.7190 C   0  0  0  0  0  0  0  0  0  0  0  0
   42.4820   38.4640   26.9860 O   0  0  0  0  0  0  0  0  0  0  0  0
   37.6800   36.3340   22.8530 C   0  0  0  0  0  0  0  0  0  0  0  0
  1  6  2  0
  3 17  1  0
  3  1  1  0
  4 18  2  0
  4 15  1  0
  5 10  1  0
  7 14  2  0
  8  3  1  0
  8  9  1  0
  9 16  1  0
 11 14  1  0
 12 16  1  0
 13 11  1  0
 13 10  2  0
 14  8  1  0
 15  5  2  0
 16  2  1  0
 18 13  1  0
M  END
$$$$

     RDKit          3D

  9  8  0  0  0  0  0  0  0  0999 V2000
   40.4440   38.6090   26.6200 C   0  0  0  0  0  0  0  0  0  0  0  0
   40.5040   37.2320   26.8640 C   0  0  0  0  0  0  0  0  0  0  0  0
   42.5090   36.8240   25.0390 S   0  0  0  0  0  0  0  0  0  0  0  0
   43.6780   35.7910   24.9400 O   0  0  0  0  0  0  0  0  0  0  0  0
   39.5250   36.4730   27.7440 C   0  0  0  0  0  0  0  0  0  0  0  0
   42.1450   35.5990   27.5440 N   0  0  0  0  0  0  0  0  0  0  0  0
   43.0380   38.2400   25.2090 O   0  0  0  0  0  0  0  0  0  0  0  0
   41.4320   36.6230   23.6620 C   0  0  0  0  0  0  0  0  0  0  0  0
   41.6450   36.4240   26.5330 C   0  0  0  0  0  0  0  0  0  0  0  0
  1  2  1  0
  2  5  1  0
  3  7  2  0
  3  9  1  0
  4  3  2  0
  8  3  1  0
  9  2  1  0
  9  6  1  0
M  END
$$$$

     RDKit          3D

 12 11  0  0  0  0  0  0  0  0999 V2000
   41.7710   36.9640   22.2220 O   0  0  0  0  0  0  0  0  0  0  0  0
   40.3950   38.9090   21.9140 C   0  0  0  0  0  0  0  0  0  0  0  0
   40.9480   36.7370   26.9840 C   0  0  0  0  0  0  0  0  0  0  0  0
   41.7660   39.3440   25.2860 C   0  0  0  0  0  0  0  0  0  0  0  0
   42.7430   35.3270   26.2030 O   0  0  0  0  0  0  0  0  0  0  0  0
   41.9240   39.2870   26.7200 O   0  0  0  0  0  0  0  0  0  0  0  0
   39.8310   37.1730   26.5920 O   0  0  0  0  0  0  0  0  0  0  0  0
   42.0890   36.5740   25.9370 C   0  0  0  0  0  0  0  0  0  0  0  0
   41.1940   38.2460   24.2340 C   0  0  0  0  0  0  0  0  0  0  0  0
   41.2250   37.9860   22.7220 C   0  0  0  0  0  0  0  0  0  0  0  0
   41.1940   36.4250   28.1660 O   0  0  0  0  0  0  0  0  0  0  0  0
   41.9710   37.0750   24.6430 C   0  0  0  0  0  0  0  0  0  0  0  0
  1 10  2  0
  2 10  1  0
  3 11  1  0
  4  6  1  0
  7  3  2  0
  8  5  1  0
  8  3  1  0
  9 12  1  0
  9  4  1  0
 10  9  1  0
 12  8  1  0
M  END
$$$$

     RDKit          3D

 18 18  0  0  0  0  0  0  0  0999 V2000
   38.6830   38.1770   23.9650 N   0  0  0  0  0  0  0  0  0  0  0  0
   42.7690   35.5410   26.5950 C   0  0  0  0  0  0  0  0  0  0  0  0
   39.2460   34.9020   24.2150 O   0  0  0  0  0  0  0  0  0  0  0  0
   37.3520   38.0600   23.7640 C   0  0  0  0  0  0  0  0  0  0  0  0
   42.1250   35.5880   27.9620 C   0  0  0  0  0  0  0  0  0  0  0  0
   35.3600   39.1560   21.4460 C   0  0  0  0  0  0  0  0  0  0  0  0
   35.1670   38.1290   22.5100 N   0  0  0  0  0  0  0  0  0  0  0  0
   34.5060   38.8260   23.6200 C   0  0  0  0  0  0  0  0  0  0  0  0
   39.6780   37.3380   24.7390 C   0  0  0  0  0  0  0  0  0  0  0  0
   42.5280   36.8960   28.4110 N   0  0  0  0  0  0  0  0  0  0  0  0
   41.9340   36.2040   25.5390 C   0  0  0  0  0  0  0  0  0  0  0  0
   39.3070   36.1640   23.8380 C   0  0  0  0  0  0  0  0  0  0  0  0
   36.4690   37.4640   22.7430 C   0  0  0  0  0  0  0  0  0  0  0  0
   40.5710   36.5600   25.8250 N   0  0  0  0  0  0  0  0  0  0  0  0
   40.6310   35.2590   28.0500 C   0  0  0  0  0  0  0  0  0  0  0  0
   34.2160   37.1360   22.0020 C   0  0  0  0  0  0  0  0  0  0  0  0
   39.8210   36.1450   27.0550 C   0  0  0  0  0  0  0  0  0  0  0  0
   39.8270   36.4000   22.5910 O   0  0  0  0  0  0  0  0  0  0  0  0
  1  9  1  0
  2  5  1  0
  4  1  1  0
  5 15  1  0
  5 10  1  0
  6  7  1  0
  7 13  1  0
  7  8  1  0
  9 12  1  0
  9 14  1  0
 11 14  1  0
 11  2  1  0
 12  3  1  0
 13  4  1  0
 14 17  1  0
 16  7  1  0
 17 15  1  0
 18 12  2  0
M  END
$$$$

     RDKit          3D

 13 13  0  0  0  0  0  0  0  0999 V2000
   40.0040   36.8100   26.4620 O   0  0  0  0  0  0  0  0  0  0  0  0
   42.1260   36.2960   26.7280 O   0  0  0  0  0  0  0  0  0  0  0  0
   42.4790   39.8730   25.7810 O   0  0  0  0  0  0  0  0  0  0  0  0
   40.6120   35.2830   28.1990 C   0  0  0  0  0  0  0  0  0  0  0  0
   39.2540   36.2570   24.4970 O   0  0  0  0  0  0  0  0  0  0  0  0
   43.9850   36.7450   25.6200 O   0  0  0  0  0  0  0  0  0  0  0  0
   40.3150   37.2480   25.1950 C   0  0  0  0  0  0  0  0  0  0  0  0
   40.0720   35.9290   23.5200 C   0  0  0  0  0  0  0  0  0  0  0  0
   41.8470   37.7560   25.0930 C   0  0  0  0  0  0  0  0  0  0  0  0
   40.9030   35.7380   26.8990 C   0  0  0  0  0  0  0  0  0  0  0  0
   42.3400   39.0980   24.7520 C   0  0  0  0  0  0  0  0  0  0  0  0
   42.5190   36.5120   25.3850 C   0  0  0  0  0  0  0  0  0  0  0  0
   42.8020   39.4670   23.6970 O   0  0  0  0  0  0  0  0  0  0  0  0
  1 10  1  0
  2 10  1  0
  7  5  1  0
  7  1  1  0
  8  5  1  0
  9 11  1  0
  9  7  1  0
  9 12  1  0
 10  4  1  0
 11  3  1  0
 12  6  1  0
 12  2  1  0
 13 11  2  0
M  END
$$$$

     RDKit          3D

 15 15  0  0  0  0  0  0  0  0999 V2000
   35.7220   38.4590   23.4030 C   0  0  0  0  0  0  0  0  0  0  0  0
   39.4180   35.5650   22.4120 N   0  0  0  0  0  0  0  0  0  0  0  0
   38.7260   35.4190   25.1070 O   0  0  0  0  0  0  0  0  0  0  0  0
   40.2790   38.5460   26.3950 O   0  0  0  0  0  0  0  0  0  0  0  0
   39.7600   37.6140   28.3700 N   0  0  0  0  0  0  0  0  0  0  0  0
   40.3910   35.0460   27.2860 C   0  0  0  0  0  0  0  0  0  0  0  0
   40.0160   37.1740   24.0850 C   0  0  0  0  0  0  0  0  0  0  0  0
   39.1680   36.8900   22.8770 C   0  0  0  0  0  0  0  0  0  0  0  0
   41.8890   34.9280   27.4030 C   0  0  0  0  0  0  0  0  0  0  0  0
   41.0550   34.9100   28.6170 C   0  0  0  0  0  0  0  0  0  0  0  0
   40.1150   37.5440   27.0840 C   0  0  0  0  0  0  0  0  0  0  0  0
   40.2050   36.3620   26.4360 N   0  0  0  0  0  0  0  0  0  0  0  0
   39.6970   36.2640   25.2370 C   0  0  0  0  0  0  0  0  0  0  0  0
   37.2460   38.4830   23.2460 C   0  0  0  0  0  0  0  0  0  0  0  0
   37.6590   37.0460   23.0430 C   0  0  0  0  0  0  0  0  0  0  0  0
  3 13  2  0
  4 11  2  0
  6  9  1  0
  6 10  1  0
  7 13  1  0
  8  2  1  0
  8 15  1  0
  8  7  1  0
  9 10  1  0
 11  5  1  0
 12 11  1  0
 12  6  1  0
 13 12  1  0
 14  1  1  0
 15 14  1  0
M  END
$$$$

     RDKit          3D

 10  9  0  0  0  0  0  0  0  0999 V2000
   41.6610   36.8510   24.5720 C   0  0  0  0  0  0  0  0  0  0  0  0
   42.8320   37.2170   25.2160 C   0  0  0  0  0  0  0  0  0  0  0  0
   41.2740   35.6570   27.4220 N   0  0  0  0  0  0  0  0  0  0  0  0
   40.3940   35.0700   28.4440 C   0  0  0  0  0  0  0  0  0  0  0  0
   43.5370   37.5530   25.9170 N   0  0  0  0  0  0  0  0  0  0  0  0
   40.4930   36.6590   26.8380 C   0  0  0  0  0  0  0  0  0  0  0  0
   40.4580   37.0630   25.5550 C   0  0  0  0  0  0  0  0  0  0  0  0
   38.5870   37.6130   23.5380 C   0  0  0  0  0  0  0  0  0  0  0  0
   42.4360   36.1940   28.1530 C   0  0  0  0  0  0  0  0  0  0  0  0
   39.0610   37.9410   25.1380 S   0  0  0  0  0  0  0  0  0  0  0  0
  1  2  1  0
  2  5  3  0
  3  9  1  0
  3  4  1  0
  6  3  1  0
  7  1  1  0
  7  6  1  0
  8 10  1  0
 10  7  1  0
M  END
$$$$

     RDKit          3D

 14 15  0  0  0  0  0  0  0  0999 V2000
   41.5510   37.2380   25.8160 C   0  0  0  0  0  0  0  0  0  0  0  0
   42.0190   35.2140   27.5450 C   0  0  0  0  0  0  0  0  0  0  0  0
   39.1430   35.0720   24.3750 N   0  0  0  0  0  0  0  0  0  0  0  0
   44.0280   36.1420   24.3030 N   0  0  0  0  0  0  0  0  0  0  0  0
   40.4190   35.5580   27.8300 S   0  0  0  0  0  0  0  0  0  0  0  0
   38.2730   36.1930   23.7620 C   0  0  0  0  0  0  0  0  0  0  0  0
   40.1350   36.2010   26.0200 C   0  0  0  0  0  0  0  0  0  0  0  0
   44.0560   36.3880   25.7230 C   0  0  0  0  0  0  0  0  0  0  0  0
   37.4410   37.2160   22.6730 C   0  0  0  0  0  0  0  0  0  0  0  0
   37.6640   38.2150   23.7360 C   0  0  0  0  0  0  0  0  0  0  0  0
   38.9450   38.1620   24.5880 C   0  0  0  0  0  0  0  0  0  0  0  0
   40.9620   38.3730   26.4210 O   0  0  0  0  0  0  0  0  0  0  0  0
   42.8010   36.7050   26.5470 C   0  0  0  0  0  0  0  0  0  0  0  0
   39.0630   37.0680   24.9420 C   0  0  0  0  0  0  0  0  0  0  0  0
  1  7  1  0
  1 12  1  0
  1 13  1  0
  2  5  1  0
  4  8  1  0
  6  3  1  0
  6 14  2  0
  7 14  1  0
  7  5  1  0
  9 10  1  0
  9  6  1  0
 10 11  1  0
 11 14  1  0
 13  8  1  0
 13  2  1  0
M  END
$$$$
