
     RDKit          3D

 14 14  0  0  0  0  0  0  0  0999 V2000
   45.6810   40.1850   31.9730 O   0  0  0  0  0  0  0  0  0  0  0  0
   41.1850   40.7480   31.7720 O   0  0  0  0  0  0  0  0  0  0  0  0
   41.1060   39.0500   30.2480 C   0  0  0  0  0  0  0  0  0  0  0  0
   41.7040   38.6220   32.4130 C   0  0  0  0  0  0  0  0  0  0  0  0
   41.7630   37.8910   30.1340 O   0  0  0  0  0  0  0  0  0  0  0  0
   39.6650   40.2480   30.5850 O   0  0  0  0  0  0  0  0  0  0  0  0
   42.2650   41.0110   32.4040 C   0  0  0  0  0  0  0  0  0  0  0  0
   40.7180   39.4350   31.6090 C   0  0  0  0  0  0  0  0  0  0  0  0
   43.1030   38.7750   32.1300 C   0  0  0  0  0  0  0  0  0  0  0  0
   44.6590   40.6030   32.9190 C   0  0  0  0  0  0  0  0  0  0  0  0
   43.2190   40.1770   32.4190 C   0  0  0  0  0  0  0  0  0  0  0  0
   43.7710   37.8340   33.2580 C   0  0  0  0  0  0  0  0  0  0  0  0
   41.2560   37.1900   32.5950 O   0  0  0  0  0  0  0  0  0  0  0  0
   42.4500   42.4160   32.9790 C   0  0  0  0  0  0  0  0  0  0  0  0
  1 10  1  0
  2  7  1  0
  3  8  1  0
  4 13  1  0
  5  3  1  0
  7 11  1  0
  7 14  1  0
  8  6  1  0
  8  2  1  0
  8  4  1  0
  9  4  1  0
  9 11  1  0
  9 12  1  0
 11 10  1  0
M  END
$$$$

     RDKit          3D

 15 14  0  0  0  0  0  0  0  0999 V2000
   42.9020   40.4200   29.4320 O   0  0  0  0  0  0  0  0  0  0  0  0
   42.0140   38.6840   33.0570 C   0  0  0  0  0  0  0  0  0  0  0  0
   43.5810   40.0710   31.7960 C   0  0  0  0  0  0  0  0  0  0  0  0
   39.0590   42.0160   29.8760 C   0  0  0  0  0  0  0  0  0  0  0  0
   45.0190   40.3880   32.3080 C   0  0  0  0  0  0  0  0  0  0  0  0
   40.6670   40.3590   30.9700 O   0  0  0  0  0  0  0  0  0  0  0  0
   41.5420   37.2420   33.2090 C   0  0  0  0  0  0  0  0  0  0  0  0
   44.7120   38.2720   34.1170 S   0  0  0  0  0  0  0  0  0  0  0  0
   41.2090   38.5710   29.1970 O   0  0  0  0  0  0  0  0  0  0  0  0
   40.2880   41.7360   30.6890 C   0  0  0  0  0  0  0  0  0  0  0  0
   42.5330   38.9260   31.5910 C   0  0  0  0  0  0  0  0  0  0  0  0
   41.1280   42.8030   31.1160 C   0  0  0  0  0  0  0  0  0  0  0  0
   41.8000   39.6160   30.1040 P   0  0  0  0  0  0  0  0  0  0  0  0
   42.7800   41.1740   32.2270 N   0  0  0  0  0  0  0  0  0  0  0  0
   43.0540   39.0300   34.1740 C   0  0  0  0  0  0  0  0  0  0  0  0
  1 13  1  0
  2  7  1  0
  2 15  1  0
  3 14  1  0
  3  5  1  0
  4 10  1  0
  8 15  1  0
 10  6  1  0
 10 12  1  0
 11  3  1  0
 11  2  1  0
 13  9  2  0
 13  6  1  0
 13 11  1  0
M  END
$$$$

     RDKit          3D

 14 14  0  0  0  0  0  0  0  0999 V2000
   41.2250   37.9770   29.4790 O   0  0  0  0  0  0  0  0  0  0  0  0
   39.7130   42.0820   29.7690 C   0  0  0  0  0  0  0  0  0  0  0  0
   42.3030   37.9720   32.1620 N   0  0  0  0  0  0  0  0  0  0  0  0
   42.8230   40.4940   31.5280 C   0  0  0  0  0  0  0  0  0  0  0  0
   41.4850   38.9500   30.1090 C   0  0  0  0  0  0  0  0  0  0  0  0
   42.1620   41.0440   30.3230 O   0  0  0  0  0  0  0  0  0  0  0  0
   41.1150   40.3520   29.7640 C   0  0  0  0  0  0  0  0  0  0  0  0
   42.2430   39.4080   34.7900 N   0  0  0  0  0  0  0  0  0  0  0  0
   38.7050   42.8220   30.4270 N   0  0  0  0  0  0  0  0  0  0  0  0
   43.3690   38.7210   33.7840 O   0  0  0  0  0  0  0  0  0  0  0  0
   42.4680   38.6670   33.6050 C   0  0  0  0  0  0  0  0  0  0  0  0
   40.1960   40.9770   30.6020 N   0  0  0  0  0  0  0  0  0  0  0  0
   42.0640   39.1160   31.5410 C   0  0  0  0  0  0  0  0  0  0  0  0
   40.0300   42.3610   28.5700 O   0  0  0  0  0  0  0  0  0  0  0  0
  1  5  2  0
  2  9  1  0
  2 12  1  0
  3 11  1  0
  4 13  1  0
  5 13  1  0
  6  4  1  0
  7  5  1  0
  7  6  1  0
  7 12  1  0
 11 10  2  0
 11  8  1  0
 13  3  1  0
 14  2  2  0
M  END
$$$$

     RDKit          3D

  8  7  0  0  0  0  0  0  0  0999 V2000
   41.0700   38.5770   28.9290 N   0  0  0  0  0  0  0  0  0  0  0  0
   44.4010   38.7580   32.2930 S   0  0  0  0  0  0  0  0  0  0  0  0
   40.1960   40.7150   31.8470 O   0  0  0  0  0  0  0  0  0  0  0  0
   42.0320   40.6000   33.0170 O   0  0  0  0  0  0  0  0  0  0  0  0
   40.8900   39.0410   30.1340 C   0  0  0  0  0  0  0  0  0  0  0  0
   43.1580   38.6360   31.0140 C   0  0  0  0  0  0  0  0  0  0  0  0
   41.3290   40.2210   32.0850 C   0  0  0  0  0  0  0  0  0  0  0  0
   41.7090   38.9220   31.3890 C   0  0  0  0  0  0  0  0  0  0  0  0
  1  5  2  0
  3  7  2  0
  6  8  1  0
  6  2  1  0
  7  4  1  0
  8  5  1  0
  8  7  1  0
M  END
$$$$

     RDKit          3D

 10 10  0  0  0  0  0  0  0  0999 V2000
   43.4080   39.3800   30.6340 C   0  0  0  0  0  0  0  0  0  0  0  0
   44.2560   39.8570   31.9010 C   0  0  0  0  0  0  0  0  0  0  0  0
   41.9220   39.6070   30.9080 C   0  0  0  0  0  0  0  0  0  0  0  0
   40.1340   39.5460   32.5340 O   0  0  0  0  0  0  0  0  0  0  0  0
   42.1270   40.2620   33.2840 N   0  0  0  0  0  0  0  0  0  0  0  0
   41.5320   39.3650   32.3490 C   0  0  0  0  0  0  0  0  0  0  0  0
   44.0380   41.2960   33.7330 O   0  0  0  0  0  0  0  0  0  0  0  0
   43.4960   40.4470   33.0680 C   0  0  0  0  0  0  0  0  0  0  0  0
   45.5470   39.7250   31.9870 O   0  0  0  0  0  0  0  0  0  0  0  0
   41.2230   38.9350   29.8330 O   0  0  0  0  0  0  0  0  0  0  0  0
  1  3  1  0
  1  2  1  0
  2  9  1  0
  2  8  1  0
  3 10  1  0
  3  6  1  0
  6  4  1  0
  6  5  1  0
  8  5  1  0
  8  7  2  0
M  END
$$$$

     RDKit          3D

 10 10  0  0  0  0  0  0  0  0999 V2000
   41.9820   37.9560   31.7520 C   0  0  0  0  0  0  0  0  0  0  0  0
   40.8610   38.9490   29.7640 C   0  0  0  0  0  0  0  0  0  0  0  0
   40.5810   40.0630   30.5330 C   0  0  0  0  0  0  0  0  0  0  0  0
   43.7290   39.4630   32.5460 C   0  0  0  0  0  0  0  0  0  0  0  0
   43.8870   39.7540   33.7350 O   0  0  0  0  0  0  0  0  0  0  0  0
   44.7250   39.2000   31.5620 N   0  0  0  0  0  0  0  0  0  0  0  0
   41.5320   37.8840   30.3790 N   0  0  0  0  0  0  0  0  0  0  0  0
   41.3790   40.2990   31.6450 C   0  0  0  0  0  0  0  0  0  0  0  0
   42.3400   39.2970   32.0100 C   0  0  0  0  0  0  0  0  0  0  0  0
   42.2090   37.2000   32.8290 O   0  0  0  0  0  0  0  0  0  0  0  0
  1  9  1  0
  1 10  2  0
  2  7  2  0
  2  3  1  0
  3  8  2  0
  4  5  2  0
  6  4  1  0
  7  1  1  0
  8  9  1  0
  9  4  1  0
M  END
$$$$

     RDKit          3D

 17 16  0  0  0  0  0  0  0  0999 V2000
   42.8560   37.8480   33.4400 P   0  0  0  0  0  0  0  0  0  0  0  0
   41.1080   39.0100   31.9620 C   0  0  0  0  0  0  0  0  0  0  0  0
   41.6390   37.3000   34.0780 O   0  0  0  0  0  0  0  0  0  0  0  0
   42.5010   43.4720   30.8270 C   0  0  0  0  0  0  0  0  0  0  0  0
   41.9340   42.2390   30.2020 C   0  0  0  0  0  0  0  0  0  0  0  0
   41.1490   40.0900   28.6570 C   0  0  0  0  0  0  0  0  0  0  0  0
   39.2060   41.3870   29.6630 C   0  0  0  0  0  0  0  0  0  0  0  0
   43.2720   39.0150   34.3520 O   0  0  0  0  0  0  0  0  0  0  0  0
   40.9940   39.9420   30.7020 C   0  0  0  0  0  0  0  0  0  0  0  0
   41.1140   38.8480   28.3750 O   0  0  0  0  0  0  0  0  0  0  0  0
   42.4180   38.3900   32.0040 O   0  0  0  0  0  0  0  0  0  0  0  0
   38.6640   42.4480   29.8370 C   0  0  0  0  0  0  0  0  0  0  0  0
   41.4810   41.3620   31.2930 C   0  0  0  0  0  0  0  0  0  0  0  0
   41.9220   41.2860   32.3810 O   0  0  0  0  0  0  0  0  0  0  0  0
   41.8020   40.9820   28.0830 O   0  0  0  0  0  0  0  0  0  0  0  0
   43.8960   36.7680   33.2080 O   0  0  0  0  0  0  0  0  0  0  0  0
   40.2820   40.6010   29.5780 N   0  0  0  0  0  0  0  0  0  0  0  0
  1  3  1  0
  1  8  1  0
  2 11  1  0
  5  4  1  0
  5 13  1  0
  6 17  1  0
  7 12  2  0
  9 13  1  0
  9  2  1  0
 10  6  1  0
 11  1  1  0
 13 14  2  0
 15  6  2  0
 16  1  2  0
 17  7  1  0
 17  9  1  0
M  END
$$$$

     RDKit          3D

 11 12  0  0  0  0  0  0  0  0999 V2000
   41.9290   38.4670   28.9500 O   0  0  0  0  0  0  0  0  0  0  0  0
   44.5030   38.6790   31.6290 O   0  0  0  0  0  0  0  0  0  0  0  0
   41.5870   38.6200   30.1710 C   0  0  0  0  0  0  0  0  0  0  0  0
   41.2540   40.7620   31.3510 C   0  0  0  0  0  0  0  0  0  0  0  0
   43.8330   38.4140   32.9360 C   0  0  0  0  0  0  0  0  0  0  0  0
   40.0630   40.6170   30.9080 O   0  0  0  0  0  0  0  0  0  0  0  0
   43.6470   39.8480   31.8020 C   0  0  0  0  0  0  0  0  0  0  0  0
   41.5380   41.7300   32.0570 O   0  0  0  0  0  0  0  0  0  0  0  0
   43.1480   39.6390   33.1050 O   0  0  0  0  0  0  0  0  0  0  0  0
   42.3520   39.7720   30.9490 C   0  0  0  0  0  0  0  0  0  0  0  0
   40.6820   38.0060   30.7630 O   0  0  0  0  0  0  0  0  0  0  0  0
  1  3  2  0
  2  7  1  0
  3 11  1  0
  3 10  1  0
  4  8  1  0
  5  2  1  0
  5  9  1  0
  6  4  2  0
  7 10  1  0
  7  5  1  0
  7  9  1  0
 10  4  1  0
M  END
$$$$

     RDKit          3D

 17 17  0  0  0  0  0  0  0  0999 V2000
   41.3930   37.5850   31.3310 N   0  0  0  0  0  0  0  0  0  0  0  0
   40.9110   39.9340   32.5180 O   0  0  0  0  0  0  0  0  0  0  0  0
   40.8900   41.3400   30.8590 C   0  0  0  0  0  0  0  0  0  0  0  0
   41.3800   37.5890   32.8900 C   0  0  0  0  0  0  0  0  0  0  0  0
   43.3670   41.5110   30.5730 O   0  0  0  0  0  0  0  0  0  0  0  0
   39.9530   44.0800   29.2290 C   0  0  0  0  0  0  0  0  0  0  0  0
   39.5460   42.6360   29.1480 C   0  0  0  0  0  0  0  0  0  0  0  0
   44.1420   39.4020   30.1400 C   0  0  0  0  0  0  0  0  0  0  0  0
   41.3300   36.0470   33.2070 C   0  0  0  0  0  0  0  0  0  0  0  0
   43.0190   40.2810   30.7970 C   0  0  0  0  0  0  0  0  0  0  0  0
   40.0680   41.8420   30.0240 C   0  0  0  0  0  0  0  0  0  0  0  0
   41.3320   38.6220   30.4390 C   0  0  0  0  0  0  0  0  0  0  0  0
   39.1620   42.1000   27.8140 C   0  0  0  0  0  0  0  0  0  0  0  0
   41.0450   38.6250   29.2820 O   0  0  0  0  0  0  0  0  0  0  0  0
   41.6160   40.0010   31.1740 C   0  0  0  0  0  0  0  0  0  0  0  0
   41.7460   38.4450   34.0170 N   0  0  0  0  0  0  0  0  0  0  0  0
   41.7140   39.4200   33.2460 C   0  0  0  0  0  0  0  0  0  0  0  0
  1  4  2  0
  2 17  1  0
  4  9  1  0
  4 16  1  0
  5 10  1  0
  7  6  1  0
  7 11  2  0
 10  8  1  0
 10 15  1  0
 11  3  2  0
 12 15  1  0
 12  1  1  0
 13  7  1  0
 14 12  2  0
 15  3  1  0
 15  2  1  0
 17 16  1  0
M  END
$$$$

     RDKit          3D

  9  8  0  0  0  0  0  0  0  0999 V2000
   42.0740   40.9850   30.1900 O   0  0  0  0  0  0  0  0  0  0  0  0
   41.4310   39.9380   33.0310 C   0  0  0  0  0  0  0  0  0  0  0  0
   42.5110   39.2830   32.0200 C   0  0  0  0  0  0  0  0  0  0  0  0
   41.1640   38.9420   29.8980 O   0  0  0  0  0  0  0  0  0  0  0  0
   42.2770   37.8250   32.4700 C   0  0  0  0  0  0  0  0  0  0  0  0
   41.0620   37.2260   31.9270 O   0  0  0  0  0  0  0  0  0  0  0  0
   40.9840   41.1940   32.5050 O   0  0  0  0  0  0  0  0  0  0  0  0
   44.0380   39.4130   31.5110 C   0  0  0  0  0  0  0  0  0  0  0  0
   41.8940   39.6890   30.6770 C   0  0  0  0  0  0  0  0  0  0  0  0
  1  9  1  0
  3  5  1  0
  3  2  1  0
  4  9  2  0
  6  5  1  0
  7  2  1  0
  8  3  1  0
  9  3  1  0
M  END
$$$$

     RDKit          3D

 24 25  0  0  0  0  0  0  0  0999 V2000
   44.1840   40.7830   33.0790 O   0  0  0  0  0  0  0  0  0  0  0  0
   43.0870   38.8470   31.8890 C   0  0  0  0  0  0  0  0  0  0  0  0
   39.8990   43.6260   28.7390 O   0  0  0  0  0  0  0  0  0  0  0  0
   39.2720   37.1620   33.2050 O   0  0  0  0  0  0  0  0  0  0  0  0
   40.5740   41.1640   31.9310 O   0  0  0  0  0  0  0  0  0  0  0  0
   38.9260   42.8930   29.0600 C   0  0  0  0  0  0  0  0  0  0  0  0
   45.2830   38.8970   32.6140 C   0  0  0  0  0  0  0  0  0  0  0  0
   39.1280   41.6340   28.3360 C   0  0  0  0  0  0  0  0  0  0  0  0
   39.4880   40.2530   28.5650 O   0  0  0  0  0  0  0  0  0  0  0  0
   37.7280   43.1210   29.7180 C   0  0  0  0  0  0  0  0  0  0  0  0
   41.2090   38.2990   35.0010 O   0  0  0  0  0  0  0  0  0  0  0  0
   42.1510   38.9920   29.0450 O   0  0  0  0  0  0  0  0  0  0  0  0
   40.3940   40.4310   30.6430 C   0  0  0  0  0  0  0  0  0  0  0  0
   42.7150   39.8560   30.9840 N   0  0  0  0  0  0  0  0  0  0  0  0
   41.3390   41.1500   29.6010 C   0  0  0  0  0  0  0  0  0  0  0  0
   41.5780   37.7180   33.7130 C   0  0  0  0  0  0  0  0  0  0  0  0
   46.3370   38.3770   32.4980 C   0  0  0  0  0  0  0  0  0  0  0  0
   41.8220   38.6040   32.5900 C   0  0  0  0  0  0  0  0  0  0  0  0
   40.5160   41.0940   28.3070 C   0  0  0  0  0  0  0  0  0  0  0  0
   41.6430   39.7990   30.0670 C   0  0  0  0  0  0  0  0  0  0  0  0
   38.8610   42.0670   26.8670 C   0  0  0  0  0  0  0  0  0  0  0  0
   40.4800   36.7640   33.3790 C   0  0  0  0  0  0  0  0  0  0  0  0
   40.8570   35.3090   33.3620 C   0  0  0  0  0  0  0  0  0  0  0  0
   44.0110   39.4310   32.8310 C   0  0  0  0  0  0  0  0  0  0  0  0
  2 18  1  0
  2 24  1  0
  3  6  2  0
  4 22  2  0
  6 10  1  0
  7 24  1  0
  8 21  1  0
  8  9  1  0
  8  6  1  0
 13  5  1  0
 14  2  1  0
 15 19  1  0
 15 20  1  0
 15 13  1  0
 16 11  1  0
 17  7  3  0
 18 16  1  0
 19  8  1  0
 19  9  1  0
 20 12  1  0
 20 13  1  0
 20 14  1  0
 22 16  1  0
 23 22  1  0
 24  1  1  0
M  END
$$$$

     RDKit          3D

 13 13  0  0  0  0  0  0  0  0999 V2000
   44.8580   40.6880   31.1870 C   0  0  0  0  0  0  0  0  0  0  0  0
   43.9610   36.8270   33.3480 N   0  0  0  0  0  0  0  0  0  0  0  0
   41.8590   37.7160   32.0910 C   0  0  0  0  0  0  0  0  0  0  0  0
   43.7210   39.7920   31.7130 C   0  0  0  0  0  0  0  0  0  0  0  0
   41.2140   38.3610   29.8270 O   0  0  0  0  0  0  0  0  0  0  0  0
   41.4620   38.6490   31.1620 C   0  0  0  0  0  0  0  0  0  0  0  0
   41.6890   41.1990   31.4190 C   0  0  0  0  0  0  0  0  0  0  0  0
   40.4750   41.2200   31.8010 O   0  0  0  0  0  0  0  0  0  0  0  0
   44.1450   38.4070   31.4940 O   0  0  0  0  0  0  0  0  0  0  0  0
   40.7400   36.1620   32.9840 I   0  0  0  0  0  0  0  0  0  0  0  0
   42.3940   39.9230   31.0890 C   0  0  0  0  0  0  0  0  0  0  0  0
   42.2940   42.2810   30.9540 O   0  0  0  0  0  0  0  0  0  0  0  0
   43.3210   37.5990   32.3760 C   0  0  0  0  0  0  0  0  0  0  0  0
  3 13  1  0
  3 10  1  0
  4  1  1  0
  6  5  1  0
  6  3  1  0
  7  8  1  0
  9  4  1  0
  9 13  1  0
 11  6  1  0
 11  7  1  0
 11  4  1  0
 12  7  2  0
 13  2  1  0
M  END
$$$$

     RDKit          3D

 14 13  0  0  0  0  0  0  0  0999 V2000
   41.3190   36.2330   32.2720 O   0  0  0  0  0  0  0  0  0  0  0  0
   41.1580   40.3130   29.5560 O   0  0  0  0  0  0  0  0  0  0  0  0
   40.1590   40.3850   31.5570 O   0  0  0  0  0  0  0  0  0  0  0  0
   41.8020   40.5610   34.7350 O   0  0  0  0  0  0  0  0  0  0  0  0
   41.2710   38.4270   33.3770 C   0  0  0  0  0  0  0  0  0  0  0  0
   44.1980   38.2020   32.1740 Cl  0  0  0  0  0  0  0  0  0  0  0  0
   44.7570   38.5960   35.0310 Cl  0  0  0  0  0  0  0  0  0  0  0  0
   40.8390   37.5910   32.1580 C   0  0  0  0  0  0  0  0  0  0  0  0
   44.3560   42.1730   34.1740 C   0  0  0  0  0  0  0  0  0  0  0  0
   43.8580   41.0060   33.3420 O   0  0  0  0  0  0  0  0  0  0  0  0
   42.6720   38.7870   33.3440 C   0  0  0  0  0  0  0  0  0  0  0  0
   43.1600   39.8730   34.2520 P   0  0  0  0  0  0  0  0  0  0  0  0
   41.2040   38.2180   30.8110 C   0  0  0  0  0  0  0  0  0  0  0  0
   40.7840   39.7310   30.6900 C   0  0  0  0  0  0  0  0  0  0  0  0
  2 14  2  0
  8  1  1  0
  8  5  1  0
 10  9  1  0
 10 12  1  0
 11  6  1  0
 11  5  1  0
 11 12  1  0
 12  4  2  0
 12  7  1  0
 13  8  1  0
 14 13  1  0
 14  3  1  0
M  END
$$$$

     RDKit          3D

 17 19  0  0  0  0  0  0  0  0999 V2000
   42.1140   35.3550   33.0230 O   0  0  0  0  0  0  0  0  0  0  0  0
   33.6830   37.9160   35.2950 C   0  0  0  0  0  0  0  0  0  0  0  0
   36.4350   38.5760   35.2760 S   0  0  0  0  0  0  0  0  0  0  0  0
   38.9030   37.5700   33.5190 C   0  0  0  0  0  0  0  0  0  0  0  0
   33.6680   39.4170   35.1890 C   0  0  0  0  0  0  0  0  0  0  0  0
   31.3680   38.7670   35.4360 O   0  0  0  0  0  0  0  0  0  0  0  0
   34.0440   39.7800   36.0610 O   0  0  0  0  0  0  0  0  0  0  0  0
   42.5540   37.8620   33.7380 C   0  0  0  0  0  0  0  0  0  0  0  0
   34.8080   37.3070   34.9910 C   0  0  0  0  0  0  0  0  0  0  0  0
   32.3490   37.6520   36.3170 C   0  0  0  0  0  0  0  0  0  0  0  0
   41.1000   36.1450   32.7390 C   0  0  0  0  0  0  0  0  0  0  0  0
   41.8630   38.8990   33.6040 O   0  0  0  0  0  0  0  0  0  0  0  0
   41.3750   37.6980   32.8540 C   0  0  0  0  0  0  0  0  0  0  0  0
   32.3450   39.8360   34.7530 O   0  0  0  0  0  0  0  0  0  0  0  0
   40.3190   36.9340   33.7480 C   0  0  0  0  0  0  0  0  0  0  0  0
   35.2110   35.7810   35.3140 C   0  0  0  0  0  0  0  0  0  0  0  0
   37.6460   37.1500   34.2960 C   0  0  0  0  0  0  0  0  0  0  0  0
  2  9  1  0
  2 10  1  0
  4 17  1  0
  5  2  1  0
  5  7  1  0
  6 10  1  0
  9  3  1  0
  9 16  1  0
 11 13  1  0
 11  1  1  0
 11 15  1  0
 12  8  1  0
 13 12  1  0
 13  8  1  0
 13 15  1  0
 14  5  1  0
 14  6  1  0
 15  4  1  0
 17  3  1  0
M  END
$$$$

     RDKit          3D

 22 23  0  0  0  0  0  0  0  0999 V2000
   41.1680   38.9080   30.7130 C   0  0  0  0  0  0  0  0  0  0  0  0
   41.3240   37.8530   31.8630 C   0  0  0  0  0  0  0  0  0  0  0  0
   34.7170   38.5570   31.8780 C   0  0  0  0  0  0  0  0  0  0  0  0
   31.2690   38.8190   35.1730 C   0  0  0  0  0  0  0  0  0  0  0  0
   39.8570   39.1320   30.2900 C   0  0  0  0  0  0  0  0  0  0  0  0
   38.0640   37.6620   31.7350 C   0  0  0  0  0  0  0  0  0  0  0  0
   33.8770   38.4260   32.7490 C   0  0  0  0  0  0  0  0  0  0  0  0
   42.7420   37.4410   32.2080 N   0  0  0  0  0  0  0  0  0  0  0  0
   45.0080   38.3080   32.3720 C   0  0  0  0  0  0  0  0  0  0  0  0
   36.9190   39.3250   30.5680 C   0  0  0  0  0  0  0  0  0  0  0  0
   33.0870   38.4640   33.9530 C   0  0  0  0  0  0  0  0  0  0  0  0
   40.5170   37.5300   32.8630 O   0  0  0  0  0  0  0  0  0  0  0  0
   43.2710   39.4380   33.5220 O   0  0  0  0  0  0  0  0  0  0  0  0
   31.8810   37.7850   34.4830 C   0  0  0  0  0  0  0  0  0  0  0  0
   32.2750   39.7950   35.4130 O   0  0  0  0  0  0  0  0  0  0  0  0
   36.3410   37.8080   32.0600 S   0  0  0  0  0  0  0  0  0  0  0  0
   38.1960   38.8020   30.7520 C   0  0  0  0  0  0  0  0  0  0  0  0
   42.2700   39.2940   29.7900 C   0  0  0  0  0  0  0  0  0  0  0  0
   39.8050   39.5580   28.9020 O   0  0  0  0  0  0  0  0  0  0  0  0
   31.2110   36.4550   34.4710 C   0  0  0  0  0  0  0  0  0  0  0  0
   43.6140   38.4610   32.7400 C   0  0  0  0  0  0  0  0  0  0  0  0
   33.3830   39.5490   34.7840 N   0  0  0  0  0  0  0  0  0  0  0  0
  1 18  1  0
  1  2  1  0
  2  8  1  0
  2 12  2  0
  3  7  2  0
  4 15  1  0
  5 19  1  0
  5  1  1  0
  6 16  1  0
  7 11  2  0
  8 21  1  0
  9 21  1  0
 10 17  1  0
 10 16  1  0
 11 14  1  0
 11 22  1  0
 14 20  1  0
 14  4  1  0
 16  3  1  0
 17  5  1  0
 17  6  1  0
 21 13  2  0
 22 15  1  0
M  END
$$$$

     RDKit          3D

 18 18  0  0  0  0  0  0  0  0999 V2000
   42.2620   41.3510   32.8820 O   0  0  0  0  0  0  0  0  0  0  0  0
   44.0640   39.6370   34.6760 C   0  0  0  0  0  0  0  0  0  0  0  0
   42.6720   39.6170   34.1310 N   0  0  0  0  0  0  0  0  0  0  0  0
   41.7980   38.9320   35.0180 O   0  0  0  0  0  0  0  0  0  0  0  0
   40.8800   35.8540   33.2260 C   0  0  0  0  0  0  0  0  0  0  0  0
   45.2010   39.0470   33.7540 C   0  0  0  0  0  0  0  0  0  0  0  0
   42.2200   40.1570   32.8090 C   0  0  0  0  0  0  0  0  0  0  0  0
   42.3160   37.7730   32.7310 N   0  0  0  0  0  0  0  0  0  0  0  0
   43.4260   37.4240   33.5790 C   0  0  0  0  0  0  0  0  0  0  0  0
   40.2680   41.2520   30.6890 C   0  0  0  0  0  0  0  0  0  0  0  0
   42.5610   40.6120   30.2440 C   0  0  0  0  0  0  0  0  0  0  0  0
   41.6380   38.4960   30.1930 O   0  0  0  0  0  0  0  0  0  0  0  0
   41.8230   39.5280   31.1870 C   0  0  0  0  0  0  0  0  0  0  0  0
   44.7550   37.7380   33.0310 C   0  0  0  0  0  0  0  0  0  0  0  0
   39.2820   41.2950   29.6350 O   0  0  0  0  0  0  0  0  0  0  0  0
   40.3470   39.9080   31.3740 C   0  0  0  0  0  0  0  0  0  0  0  0
   41.5070   41.4250   29.9860 O   0  0  0  0  0  0  0  0  0  0  0  0
   40.9300   37.3530   33.0500 C   0  0  0  0  0  0  0  0  0  0  0  0
  3  2  1  0
  3  4  1  0
  6  2  1  0
  7  1  2  0
  7  3  1  0
  8 18  1  0
  8  9  2  3
 10 15  1  0
 10 16  1  0
 11 13  1  0
 13 12  1  0
 13 16  1  0
 13  7  1  0
 14  9  1  0
 14  6  1  0
 17 11  1  0
 17 10  1  0
 18  5  1  0
M  END
$$$$

     RDKit          3D

 19 18  0  0  0  0  0  0  0  0999 V2000
   45.0040   37.7270   32.7140 O   0  0  0  0  0  0  0  0  0  0  0  0
   42.3430   38.0490   32.1100 C   0  0  0  0  0  0  0  0  0  0  0  0
   40.3900   40.7410   32.0570 O   0  0  0  0  0  0  0  0  0  0  0  0
   39.3800   43.3700   29.9310 C   0  0  0  0  0  0  0  0  0  0  0  0
   41.8400   39.4320   29.9400 P   0  0  0  0  0  0  0  0  0  0  0  0
   43.0770   39.9090   29.3070 O   0  0  0  0  0  0  0  0  0  0  0  0
   41.6800   35.8610   32.9150 C   0  0  0  0  0  0  0  0  0  0  0  0
   39.3860   44.2510   27.7990 O   0  0  0  0  0  0  0  0  0  0  0  0
   43.9000   40.1690   32.8050 O   0  0  0  0  0  0  0  0  0  0  0  0
   39.8920   43.3300   28.6520 C   0  0  0  0  0  0  0  0  0  0  0  0
   43.6810   38.5950   33.1850 P   0  0  0  0  0  0  0  0  0  0  0  0
   43.3550   38.6000   34.6470 O   0  0  0  0  0  0  0  0  0  0  0  0
   40.8620   40.6250   29.8560 O   0  0  0  0  0  0  0  0  0  0  0  0
   39.4820   42.3560   30.8450 N   0  0  0  0  0  0  0  0  0  0  0  0
   41.0950   38.3460   29.1930 O   0  0  0  0  0  0  0  0  0  0  0  0
   41.6930   39.0410   31.3870 O   0  0  0  0  0  0  0  0  0  0  0  0
   38.1090   44.0640   30.0330 C   0  0  0  0  0  0  0  0  0  0  0  0
   41.2970   37.2050   32.6220 O   0  0  0  0  0  0  0  0  0  0  0  0
   40.2850   41.2950   31.0480 C   0  0  0  0  0  0  0  0  0  0  0  0
  1 11  2  0
  2 16  1  0
  2 18  1  0
  2 11  1  0
  4 17  1  0
  4 14  1  0
  5 15  2  0
  5 16  1  0
  6  5  1  0
  8 10  1  0
  9 11  1  0
 10  4  1  0
 11 12  1  0
 13  5  1  0
 13 19  1  0
 14 19  1  0
 18  7  1  0
 19  3  2  0
M  END
$$$$

     RDKit          3D

 18 18  0  0  0  0  0  0  0  0999 V2000
   41.0260   40.2880   30.3580 N   0  0  0  0  0  0  0  0  0  0  0  0
   38.6170   45.3690   28.6440 O   0  0  0  0  0  0  0  0  0  0  0  0
   41.3150   38.5550   28.9160 O   0  0  0  0  0  0  0  0  0  0  0  0
   42.5760   39.2760   32.9270 C   0  0  0  0  0  0  0  0  0  0  0  0
   38.2870   43.9880   29.2440 P   0  0  0  0  0  0  0  0  0  0  0  0
   40.1560   41.0560   29.5880 C   0  0  0  0  0  0  0  0  0  0  0  0
   39.3270   42.0580   30.3400 C   0  0  0  0  0  0  0  0  0  0  0  0
   41.7780   36.9410   33.1710 N   0  0  0  0  0  0  0  0  0  0  0  0
   40.0050   40.9160   28.1020 C   0  0  0  0  0  0  0  0  0  0  0  0
   41.9280   39.5630   34.1620 O   0  0  0  0  0  0  0  0  0  0  0  0
   41.8710   40.7710   31.9110 S   0  0  0  0  0  0  0  0  0  0  0  0
   37.7850   43.0890   28.0260 O   0  0  0  0  0  0  0  0  0  0  0  0
   41.3860   38.1380   31.1030 N   0  0  0  0  0  0  0  0  0  0  0  0
   36.9800   43.7430   30.1540 O   0  0  0  0  0  0  0  0  0  0  0  0
   42.2640   37.9270   32.1800 C   0  0  0  0  0  0  0  0  0  0  0  0
   40.8270   35.9470   32.6710 C   0  0  0  0  0  0  0  0  0  0  0  0
   41.2630   38.9790   30.1180 C   0  0  0  0  0  0  0  0  0  0  0  0
   39.5980   43.3780   29.8310 O   0  0  0  0  0  0  0  0  0  0  0  0
  1 11  1  0
  2  5  1  0
  3 17  2  0
  4 10  1  0
  5 18  1  0
  5 14  1  0
  6  9  1  0
  6  7  1  0
  6  1  1  0
 11  4  1  0
 12  5  2  0
 13 15  1  0
 15  4  1  0
 15  8  1  0
 16  8  1  0
 17  1  1  0
 17 13  1  0
 18  7  1  0
M  END
$$$$

     RDKit          3D

 12 11  0  0  0  0  0  0  0  0999 V2000
   41.0140   40.0790   33.9110 O   0  0  0  0  0  0  0  0  0  0  0  0
   43.9090   38.5370   32.5090 C   0  0  0  0  0  0  0  0  0  0  0  0
   42.8430   41.6350   33.6820 O   0  0  0  0  0  0  0  0  0  0  0  0
   42.0680   40.5760   33.1120 B   0  0  0  0  0  0  0  0  0  0  0  0
   44.1170   39.7310   33.4000 N   0  0  0  0  0  0  0  0  0  0  0  0
   41.1890   40.4530   31.6940 C   0  0  0  0  0  0  0  0  0  0  0  0
   41.1780   38.2330   29.3030 O   0  0  0  0  0  0  0  0  0  0  0  0
   41.2410   39.0920   31.3570 C   0  0  0  0  0  0  0  0  0  0  0  0
   42.2080   40.0630   29.4370 O   0  0  0  0  0  0  0  0  0  0  0  0
   41.6450   37.8270   32.0400 N   0  0  0  0  0  0  0  0  0  0  0  0
   42.8230   37.7580   32.8620 C   0  0  0  0  0  0  0  0  0  0  0  0
   41.6620   39.0680   29.9370 C   0  0  0  0  0  0  0  0  0  0  0  0
  2 11  1  0
  2  5  1  0
  4  3  1  0
  4  1  1  0
  6  4  1  0
  7 12  2  0
  8  6  1  0
  8 10  1  0
  9 12  1  0
 10 11  1  0
 12  8  1  0
M  END
$$$$

     RDKit          3D

 10  9  0  0  0  0  0  0  0  0999 V2000
   41.9020   39.0180   29.7640 O   0  0  0  0  0  0  0  0  0  0  0  0
   42.7340   40.2680   31.9710 O   0  0  0  0  0  0  0  0  0  0  0  0
   41.5620   38.9230   33.7010 C   0  0  0  0  0  0  0  0  0  0  0  0
   41.2190   38.5990   32.1590 C   0  0  0  0  0  0  0  0  0  0  0  0
   41.0850   40.1750   33.8380 O   0  0  0  0  0  0  0  0  0  0  0  0
   40.1000   40.3260   30.5920 O   0  0  0  0  0  0  0  0  0  0  0  0
   40.5500   39.9230   31.6720 C   0  0  0  0  0  0  0  0  0  0  0  0
   43.6330   38.1030   31.1760 O   0  0  0  0  0  0  0  0  0  0  0  0
   42.5650   39.2000   30.9870 S   0  0  0  0  0  0  0  0  0  0  0  0
   41.2750   37.0480   32.2950 O   0  0  0  0  0  0  0  0  0  0  0  0
  1  9  1  0
  3  5  1  0
  4 10  1  0
  4  3  1  0
  6  7  2  0
  7  4  1  0
  9  8  1  0
  9  2  1  0
  9  4  1  0
M  END
$$$$
