
     RDKit          3D

 18 17  0  0  0  0  0  0  0  0999 V2000
   36.4190   35.5950   23.2930 O   0  0  0  0  0  0  0  0  0  0  0  0
   36.3490   38.4920   22.6880 C   0  0  0  0  0  0  0  0  0  0  0  0
   38.5310   39.6250   22.9770 C   0  0  0  0  0  0  0  0  0  0  0  0
   39.6900   39.3210   23.7320 C   0  0  0  0  0  0  0  0  0  0  0  0
   37.1150   36.1660   22.1570 C   0  0  0  0  0  0  0  0  0  0  0  0
   40.7470   39.8060   23.2290 O   0  0  0  0  0  0  0  0  0  0  0  0
   33.9610   39.4670   20.9130 C   0  0  0  0  0  0  0  0  0  0  0  0
   33.3410   38.4010   21.7660 C   0  0  0  0  0  0  0  0  0  0  0  0
   38.1910   37.0500   22.7080 C   0  0  0  0  0  0  0  0  0  0  0  0
   40.9490   37.9340   25.3850 O   0  0  0  0  0  0  0  0  0  0  0  0
   34.0390   38.6110   23.2100 C   0  0  0  0  0  0  0  0  0  0  0  0
   37.6450   38.5120   22.9260 C   0  0  0  0  0  0  0  0  0  0  0  0
   35.8500   40.2280   22.3650 S   0  0  0  0  0  0  0  0  0  0  0  0
   38.4930   38.1960   25.8930 C   0  0  0  0  0  0  0  0  0  0  0  0
   35.1840   37.8770   23.1330 C   0  0  0  0  0  0  0  0  0  0  0  0
   39.4130   36.9900   21.9220 O   0  0  0  0  0  0  0  0  0  0  0  0
   39.6220   38.1800   24.8310 C   0  0  0  0  0  0  0  0  0  0  0  0
   38.5930   37.0150   26.7450 O   0  0  0  0  0  0  0  0  0  0  0  0
  2 13  1  0
  2 12  1  0
  2 15  1  0
  3  4  1  0
  4 17  1  0
  5  9  1  0
  5  1  1  0
  6  4  2  0
  7  8  1  0
  8 11  1  0
  9 16  1  0
  9 12  1  0
 12  3  1  0
 14 18  1  0
 15 11  1  0
 17 10  1  0
 17 14  1  0
M  END
$$$$

     RDKit          3D

 23 24  0  0  0  0  0  0  0  0999 V2000
   39.0980   37.1430   26.5370 N   0  0  0  0  0  0  0  0  0  0  0  0
   37.8820   37.6780   23.3440 C   0  0  0  0  0  0  0  0  0  0  0  0
   35.8670   37.0380   22.3270 C   0  0  0  0  0  0  0  0  0  0  0  0
   38.5770   34.9670   20.3740 O   0  0  0  0  0  0  0  0  0  0  0  0
   38.4370   37.0760   22.0740 C   0  0  0  0  0  0  0  0  0  0  0  0
   38.7450   38.2530   24.4920 C   0  0  0  0  0  0  0  0  0  0  0  0
   35.8850   37.7510   24.7850 C   0  0  0  0  0  0  0  0  0  0  0  0
   33.4860   36.2150   22.1900 C   0  0  0  0  0  0  0  0  0  0  0  0
   39.1590   40.1420   25.7270 O   0  0  0  0  0  0  0  0  0  0  0  0
   35.2400   34.8230   21.1090 C   0  0  0  0  0  0  0  0  0  0  0  0
   33.8240   38.8630   22.8350 Br  0  0  0  0  0  0  0  0  0  0  0  0
   36.3010   35.8830   21.1030 C   0  0  0  0  0  0  0  0  0  0  0  0
   37.4030   35.1730   20.0710 C   0  0  0  0  0  0  0  0  0  0  0  0
   38.6870   35.8510   27.1690 C   0  0  0  0  0  0  0  0  0  0  0  0
   36.7220   37.4430   25.9290 C   0  0  0  0  0  0  0  0  0  0  0  0
   36.8300   34.8290   19.0170 O   0  0  0  0  0  0  0  0  0  0  0  0
   34.3560   37.2180   22.3390 C   0  0  0  0  0  0  0  0  0  0  0  0
   40.9360   39.2410   24.6140 N   0  0  0  0  0  0  0  0  0  0  0  0
   39.8960   36.9840   22.3800 C   0  0  0  0  0  0  0  0  0  0  0  0
   39.6930   39.3270   24.9650 C   0  0  0  0  0  0  0  0  0  0  0  0
   36.4400   38.0420   23.4100 C   0  0  0  0  0  0  0  0  0  0  0  0
   33.9100   35.1130   21.3500 C   0  0  0  0  0  0  0  0  0  0  0  0
   38.0470   38.0590   25.8180 C   0  0  0  0  0  0  0  0  0  0  0  0
  1 14  1  0
  2  5  1  0
  2 21  1  0
  2  6  1  0
  3 17  1  0
  5 19  1  0
  6 20  1  0
  6 23  1  0
  7 15  1  0
  8 17  2  0
 10 22  2  0
 12 10  1  0
 12  3  2  0
 13  4  1  0
 13 12  1  0
 16 13  2  0
 17 11  1  0
 18 20  1  0
 20  9  2  0
 21  3  1  0
 21  7  1  0
 22  8  1  0
 23 15  1  0
 23  1  1  0
M  END
$$$$

     RDKit          3D

 12 11  0  0  0  0  0  0  0  0999 V2000
   33.8500   38.1890   22.6560 C   0  0  0  0  0  0  0  0  0  0  0  0
   37.4510   38.6570   24.1090 C   0  0  0  0  0  0  0  0  0  0  0  0
   36.2770   38.5670   22.2850 C   0  0  0  0  0  0  0  0  0  0  0  0
   37.0940   36.6320   24.2990 O   0  0  0  0  0  0  0  0  0  0  0  0
   38.9250   36.9470   26.8650 C   0  0  0  0  0  0  0  0  0  0  0  0
   40.1310   37.3080   24.7500 C   0  0  0  0  0  0  0  0  0  0  0  0
   38.8960   37.2820   25.5280 N   0  0  0  0  0  0  0  0  0  0  0  0
   36.2010   38.4920   20.8320 N   0  0  0  0  0  0  0  0  0  0  0  0
   35.1690   38.5410   23.3210 C   0  0  0  0  0  0  0  0  0  0  0  0
   37.6030   38.9550   22.7520 C   0  0  0  0  0  0  0  0  0  0  0  0
   38.5060   38.0410   22.1710 O   0  0  0  0  0  0  0  0  0  0  0  0
   37.7550   37.5740   24.8550 C   0  0  0  0  0  0  0  0  0  0  0  0
  1  9  1  0
  2 12  1  0
  3  8  1  0
  3 10  1  0
  3  9  1  0
  4 12  2  0
  6  7  1  0
  7  5  1  0
 10 11  1  0
 10  2  1  0
 12  7  1  0
M  END
$$$$

     RDKit          3D

  9  8  0  0  0  0  0  0  0  0999 V2000
   38.7390   38.3620   23.2630 N   0  0  0  0  0  0  0  0  0  0  0  0
   36.5070   38.8900   23.1600 O   0  0  0  0  0  0  0  0  0  0  0  0
   37.9740   38.5090   25.9970 O   0  0  0  0  0  0  0  0  0  0  0  0
   39.4190   36.8430   26.2520 O   0  0  0  0  0  0  0  0  0  0  0  0
   40.9760   37.6170   23.9740 C   0  0  0  0  0  0  0  0  0  0  0  0
   37.2210   36.7740   23.6920 O   0  0  0  0  0  0  0  0  0  0  0  0
   39.6840   38.3350   24.3590 C   0  0  0  0  0  0  0  0  0  0  0  0
   38.9650   37.8390   25.6350 C   0  0  0  0  0  0  0  0  0  0  0  0
   37.4150   38.0110   23.3770 C   0  0  0  0  0  0  0  0  0  0  0  0
  1  9  1  0
  1  7  1  0
  2  9  2  0
  7  5  1  0
  7  8  1  0
  8  3  2  0
  8  4  1  0
  9  6  1  0
M  END
$$$$

     RDKit          3D

 12 11  0  0  0  0  0  0  0  0999 V2000
   36.0000   36.8080   21.9590 C   0  0  0  0  0  0  0  0  0  0  0  0
   33.1820   39.2610   22.5640 C   0  0  0  0  0  0  0  0  0  0  0  0
   38.2750   38.3220   24.4220 N   0  0  0  0  0  0  0  0  0  0  0  0
   38.0090   37.3730   25.3390 C   0  0  0  0  0  0  0  0  0  0  0  0
   34.3650   38.3050   22.8450 C   0  0  0  0  0  0  0  0  0  0  0  0
   36.9460   36.7540   25.3550 O   0  0  0  0  0  0  0  0  0  0  0  0
   35.6510   35.5650   22.0170 O   0  0  0  0  0  0  0  0  0  0  0  0
   35.0840   37.9340   21.7050 C   0  0  0  0  0  0  0  0  0  0  0  0
   38.4980   37.2180   21.8560 O   0  0  0  0  0  0  0  0  0  0  0  0
   38.9840   36.9470   26.2760 N   0  0  0  0  0  0  0  0  0  0  0  0
   37.2340   38.4150   23.4170 C   0  0  0  0  0  0  0  0  0  0  0  0
   37.3340   37.0810   22.6540 C   0  0  0  0  0  0  0  0  0  0  0  0
  1  7  1  0
  1 12  1  0
  2  5  1  0
  3  4  1  0
  4  6  2  0
  4 10  1  0
  8  1  1  0
  8  5  1  0
 11  3  1  0
 12  9  1  0
 12 11  1  0
M  END
$$$$

     RDKit          3D

 10  9  0  0  0  0  0  0  0  0999 V2000
   38.8330   38.4410   20.7230 C   0  0  0  0  0  0  0  0  0  0  0  0
   37.9810   36.0430   27.2080 C   0  0  0  0  0  0  0  0  0  0  0  0
   38.7800   37.1230   21.4720 C   0  0  0  0  0  0  0  0  0  0  0  0
   38.4750   37.0970   22.8520 C   0  0  0  0  0  0  0  0  0  0  0  0
   39.4240   39.5500   23.6670 O   0  0  0  0  0  0  0  0  0  0  0  0
   37.5410   36.9740   26.0650 C   0  0  0  0  0  0  0  0  0  0  0  0
   38.5930   37.7850   25.4650 N   0  0  0  0  0  0  0  0  0  0  0  0
   36.9210   39.2400   24.1020 O   0  0  0  0  0  0  0  0  0  0  0  0
   36.2330   37.0570   25.5650 O   0  0  0  0  0  0  0  0  0  0  0  0
   38.2810   38.6320   23.9770 P   0  0  0  0  0  0  0  0  0  0  0  0
  1  3  1  0
  3  4  2  3
  4 10  1  0
  6  2  1  0
  7  6  1  0
  9  6  2  0
 10  5  2  0
 10  8  1  0
 10  7  1  0
M  END
$$$$

     RDKit          3D

  8  8  0  0  0  0  0  0  0  0999 V2000
   36.6600   38.0050   23.7810 C   0  0  0  0  0  0  0  0  0  0  0  0
   39.9650   38.2430   22.8980 O   0  0  0  0  0  0  0  0  0  0  0  0
   36.9120   37.1810   25.0140 C   0  0  0  0  0  0  0  0  0  0  0  0
   39.2460   38.0160   25.0410 N   0  0  0  0  0  0  0  0  0  0  0  0
   39.0760   38.3470   23.7700 C   0  0  0  0  0  0  0  0  0  0  0  0
   37.7900   39.0570   23.5020 C   0  0  0  0  0  0  0  0  0  0  0  0
   38.4800   36.8130   26.9850 N   0  0  0  0  0  0  0  0  0  0  0  0
   38.2320   37.3460   25.7470 C   0  0  0  0  0  0  0  0  0  0  0  0
  1  3  1  0
  2  5  2  0
  3  8  1  0
  4  8  2  0
  5  4  1  0
  6  5  1  0
  6  1  1  0
  8  7  1  0
M  END
$$$$

     RDKit          3D

 19 20  0  0  0  0  0  0  0  0999 V2000
   32.5040   38.8040   22.8740 C   0  0  0  0  0  0  0  0  0  0  0  0
   36.2120   36.0070   22.7770 S   0  0  0  0  0  0  0  0  0  0  0  0
   38.8870   36.5240   27.0430 C   0  0  0  0  0  0  0  0  0  0  0  0
   29.4240   35.0940   22.4860 C   0  0  0  0  0  0  0  0  0  0  0  0
   37.6600   36.6200   26.2290 C   0  0  0  0  0  0  0  0  0  0  0  0
   37.9730   37.2710   25.0250 N   0  0  0  0  0  0  0  0  0  0  0  0
   31.3360   36.6540   22.7120 C   0  0  0  0  0  0  0  0  0  0  0  0
   39.2390   39.3340   24.2060 C   0  0  0  0  0  0  0  0  0  0  0  0
   40.3320   37.2740   25.1610 C   0  0  0  0  0  0  0  0  0  0  0  0
   39.1500   38.0890   25.1220 C   0  0  0  0  0  0  0  0  0  0  0  0
   32.1010   37.7140   21.9390 C   0  0  0  0  0  0  0  0  0  0  0  0
   37.9310   39.5500   23.7030 O   0  0  0  0  0  0  0  0  0  0  0  0
   35.8950   38.6230   22.8020 O   0  0  0  0  0  0  0  0  0  0  0  0
   30.4460   35.9230   21.7450 C   0  0  0  0  0  0  0  0  0  0  0  0
   37.0900   38.4990   23.3110 C   0  0  0  0  0  0  0  0  0  0  0  0
   33.8540   39.3530   22.4840 C   0  0  0  0  0  0  0  0  0  0  0  0
   40.2190   36.7950   26.5080 N   0  0  0  0  0  0  0  0  0  0  0  0
   37.4770   37.0810   23.6140 C   0  0  0  0  0  0  0  0  0  0  0  0
   34.7300   38.4490   23.3640 C   0  0  0  0  0  0  0  0  0  0  0  0
  5  3  1  0
  6 10  1  0
  6  5  1  0
  9 17  1  0
 10  8  1  0
 10  9  1  0
 11  7  1  0
 11  1  1  0
 12  8  1  0
 13 19  1  0
 14  4  1  0
 14  7  1  0
 15 13  1  0
 15 18  1  0
 15 12  1  0
 16  1  1  0
 16 19  1  0
 17  3  2  0
 18  2  1  0
 18  6  1  0
M  END
$$$$

     RDKit          3D

  7  6  0  0  0  0  0  0  0  0999 V2000
   38.8130   36.6530   26.9450 C   0  0  0  0  0  0  0  0  0  0  0  0
   40.3580   36.4290   26.7000 C   0  0  0  0  0  0  0  0  0  0  0  0
   36.9510   37.5070   24.8360 C   0  0  0  0  0  0  0  0  0  0  0  0
   36.4500   38.2540   23.5490 C   0  0  0  0  0  0  0  0  0  0  0  0
   38.0800   38.3950   25.4780 C   0  0  0  0  0  0  0  0  0  0  0  0
   38.3750   39.6010   25.0470 N   0  0  0  0  0  0  0  0  0  0  0  0
   38.5650   37.8640   26.4590 N   0  0  0  0  0  0  0  0  0  0  0  0
  2  1  1  0
  3  5  1  0
  4  3  1  0
  5  7  1  0
  6  5  2  0
  7  1  1  0
M  END
$$$$

     RDKit          3D

 14 15  0  0  0  0  0  0  0  0999 V2000
   40.1620   37.9960   23.9760 C   0  0  0  0  0  0  0  0  0  0  0  0
   34.8710   38.9210   23.0330 C   0  0  0  0  0  0  0  0  0  0  0  0
   39.4510   37.7680   26.4260 N   0  0  0  0  0  0  0  0  0  0  0  0
   35.9210   36.4890   22.4090 C   0  0  0  0  0  0  0  0  0  0  0  0
   38.6390   37.9270   23.5580 C   0  0  0  0  0  0  0  0  0  0  0  0
   37.2880   37.2060   21.5490 C   0  0  0  0  0  0  0  0  0  0  0  0
   38.4770   37.2920   22.2490 O   0  0  0  0  0  0  0  0  0  0  0  0
   41.6900   37.6310   25.8800 O   0  0  0  0  0  0  0  0  0  0  0  0
   36.3550   37.8930   24.4980 N   0  0  0  0  0  0  0  0  0  0  0  0
   40.5090   37.3890   25.3250 C   0  0  0  0  0  0  0  0  0  0  0  0
   37.9710   37.8760   26.0570 C   0  0  0  0  0  0  0  0  0  0  0  0
   35.8130   35.2500   23.0900 O   0  0  0  0  0  0  0  0  0  0  0  0
   37.9670   37.4510   24.4950 C   0  0  0  0  0  0  0  0  0  0  0  0
   35.4410   37.7310   23.2220 C   0  0  0  0  0  0  0  0  0  0  0  0
  1 10  1  0
  2 14  2  0
  4 12  1  0
  4 14  1  0
  5  1  1  0
  5 13  1  0
  6  7  1  0
  6  4  1  0
  7  5  1  0
 10  8  1  0
 10  3  1  0
 11  3  1  0
 13  9  1  0
 13 11  1  0
 14  9  1  0
M  END
$$$$

     RDKit          3D

 13 13  0  0  0  0  0  0  0  0999 V2000
   36.0450   39.5580   22.5470 O   0  0  0  0  0  0  0  0  0  0  0  0
   37.9010   37.3500   24.9180 C   0  0  0  0  0  0  0  0  0  0  0  0
   34.1060   38.6280   23.2690 O   0  0  0  0  0  0  0  0  0  0  0  0
   36.1740   37.6450   24.0470 N   0  0  0  0  0  0  0  0  0  0  0  0
   37.5420   37.5790   23.4290 C   0  0  0  0  0  0  0  0  0  0  0  0
   39.5860   36.6020   20.4130 C   0  0  0  0  0  0  0  0  0  0  0  0
   38.7920   37.8170   22.4230 C   0  0  0  0  0  0  0  0  0  0  0  0
   35.3700   38.7060   23.1950 C   0  0  0  0  0  0  0  0  0  0  0  0
   38.9580   36.7460   25.1970 N   0  0  0  0  0  0  0  0  0  0  0  0
   38.7460   36.3510   21.6070 N   0  0  0  0  0  0  0  0  0  0  0  0
   37.3410   37.4030   25.8040 O   0  0  0  0  0  0  0  0  0  0  0  0
   36.6810   36.8440   22.7370 C   0  0  0  0  0  0  0  0  0  0  0  0
   35.8580   35.8330   22.5810 O   0  0  0  0  0  0  0  0  0  0  0  0
  1  8  2  0
  2  9  1  0
  2 11  2  0
  5  7  1  0
  5  4  1  0
  5  2  1  0
  6 10  1  0
  8  3  1  0
  8  4  1  0
 10  7  1  0
 12 13  1  0
 12  5  1  0
 12  4  1  0
M  END
$$$$

     RDKit          3D

 16 15  0  0  0  0  0  0  0  0999 V2000
   33.0070   37.3260   21.5920 C   0  0  0  0  0  0  0  0  0  0  0  0
   39.8480   37.4450   24.7740 O   0  0  0  0  0  0  0  0  0  0  0  0
   38.3520   37.2540   24.0210 C   0  0  0  0  0  0  0  0  0  0  0  0
   35.9710   36.6940   23.0510 C   0  0  0  0  0  0  0  0  0  0  0  0
   35.3830   35.6730   22.7190 O   0  0  0  0  0  0  0  0  0  0  0  0
   36.2720   38.7950   21.6180 C   0  0  0  0  0  0  0  0  0  0  0  0
   37.7220   37.4680   26.4220 C   0  0  0  0  0  0  0  0  0  0  0  0
   40.5120   38.6300   24.3730 O   0  0  0  0  0  0  0  0  0  0  0  0
   33.2920   38.5280   22.1940 N   0  0  0  0  0  0  0  0  0  0  0  0
   34.3310   38.5950   23.2090 C   0  0  0  0  0  0  0  0  0  0  0  0
   37.9840   36.7600   21.5170 O   0  0  0  0  0  0  0  0  0  0  0  0
   38.8400   37.3060   22.5770 C   0  0  0  0  0  0  0  0  0  0  0  0
   35.5620   38.0340   22.6860 N   0  0  0  0  0  0  0  0  0  0  0  0
   37.7680   38.3610   24.8550 C   0  0  0  0  0  0  0  0  0  0  0  0
   36.9920   36.4670   24.0280 N   0  0  0  0  0  0  0  0  0  0  0  0
   36.1960   40.1460   21.5610 C   0  0  0  0  0  0  0  0  0  0  0  0
  1  9  1  0
  3 12  1  0
  3 15  1  0
  3  2  1  0
  3 14  1  0
  4 15  1  0
  5  4  2  0
  6 13  1  0
  8  2  1  0
  9 10  1  0
 11 12  1  0
 13  4  1  0
 13 10  1  0
 14  7  1  0
 16  6  2  0
M  END
$$$$

     RDKit          3D

 16 16  0  0  0  0  0  0  0  0999 V2000
   34.5830   37.7270   21.9140 N   0  0  0  0  0  0  0  0  0  0  0  0
   37.3480   37.3990   24.2130 C   0  0  0  0  0  0  0  0  0  0  0  0
   34.2390   38.7820   20.9540 C   0  0  0  0  0  0  0  0  0  0  0  0
   37.2450   38.6630   23.9860 N   0  0  0  0  0  0  0  0  0  0  0  0
   35.7040   37.8810   22.7610 C   0  0  0  0  0  0  0  0  0  0  0  0
   38.0240   36.6650   25.1030 N   0  0  0  0  0  0  0  0  0  0  0  0
   36.3550   36.7510   23.4020 N   0  0  0  0  0  0  0  0  0  0  0  0
   39.0100   38.2930   26.4100 O   0  0  0  0  0  0  0  0  0  0  0  0
   33.5610   39.8320   21.7970 C   0  0  0  0  0  0  0  0  0  0  0  0
   36.2790   35.2570   23.1350 C   0  0  0  0  0  0  0  0  0  0  0  0
   38.8080   36.1270   28.2380 C   0  0  0  0  0  0  0  0  0  0  0  0
   38.8260   37.1410   26.0850 C   0  0  0  0  0  0  0  0  0  0  0  0
   36.3680   38.9600   23.1770 N   0  0  0  0  0  0  0  0  0  0  0  0
   39.2990   35.9880   26.8700 N   0  0  0  0  0  0  0  0  0  0  0  0
   34.1020   41.4260   21.2950 S   0  0  0  0  0  0  0  0  0  0  0  0
   32.4170   42.0650   21.0330 C   0  0  0  0  0  0  0  0  0  0  0  0
  1  5  1  0
  2  6  1  0
  3  9  1  0
  3  1  1  0
  4  2  2  0
  5 13  2  0
  5  7  1  0
  6 12  1  0
  7  2  1  0
 10  7  1  0
 12  8  2  0
 12 14  1  0
 13  4  1  0
 14 11  1  0
 15  9  1  0
 16 15  1  0
M  END
$$$$

     RDKit          3D

 13 13  0  0  0  0  0  0  0  0999 V2000
   38.2440   38.9620   24.9260 C   0  0  0  0  0  0  0  0  0  0  0  0
   39.6770   37.7150   26.1860 N   0  0  0  0  0  0  0  0  0  0  0  0
   32.5180   39.2980   22.0060 N   0  0  0  0  0  0  0  0  0  0  0  0
   33.6210   38.5090   22.6080 C   0  0  0  0  0  0  0  0  0  0  0  0
   38.7090   37.8440   24.1370 C   0  0  0  0  0  0  0  0  0  0  0  0
   39.8010   37.4070   24.7630 C   0  0  0  0  0  0  0  0  0  0  0  0
   38.2180   37.0170   22.9820 C   0  0  0  0  0  0  0  0  0  0  0  0
   36.0080   36.1960   22.9300 N   0  0  0  0  0  0  0  0  0  0  0  0
   38.9540   36.7030   27.0030 C   0  0  0  0  0  0  0  0  0  0  0  0
   36.6660   37.2420   22.8320 C   0  0  0  0  0  0  0  0  0  0  0  0
   38.9690   39.1220   26.1290 N   0  0  0  0  0  0  0  0  0  0  0  0
   36.1100   38.5900   22.7570 N   0  0  0  0  0  0  0  0  0  0  0  0
   34.8950   39.1120   22.0220 C   0  0  0  0  0  0  0  0  0  0  0  0
  1 11  1  0
  2  9  1  0
  3  4  1  0
  5  7  1  0
  5  6  1  0
  5  1  1  0
  6  2  1  0
 10  8  2  0
 10  7  1  0
 11  2  1  0
 12 10  1  0
 13  4  1  0
 13 12  1  0
M  END
$$$$

     RDKit          3D

 20 22  0  0  0  0  0  0  0  0999 V2000
   37.0610   37.2320   24.8930 C   0  0  0  0  0  0  0  0  0  0  0  0
   39.2020   37.2390   26.6240 C   0  0  0  0  0  0  0  0  0  0  0  0
   35.5530   36.3980   22.3830 O   0  0  0  0  0  0  0  0  0  0  0  0
   36.3490   37.3030   22.0370 C   0  0  0  0  0  0  0  0  0  0  0  0
   37.3800   39.2910   21.9100 C   0  0  0  0  0  0  0  0  0  0  0  0
   36.6240   43.6510   20.4320 C   0  0  0  0  0  0  0  0  0  0  0  0
   37.7180   40.7040   21.7650 C   0  0  0  0  0  0  0  0  0  0  0  0
   37.4360   36.0730   27.8360 C   0  0  0  0  0  0  0  0  0  0  0  0
   36.3400   38.6340   21.5750 C   0  0  0  0  0  0  0  0  0  0  0  0
   37.8330   37.0730   22.6410 C   0  0  0  0  0  0  0  0  0  0  0  0
   35.8950   41.1860   20.4590 C   0  0  0  0  0  0  0  0  0  0  0  0
   36.8100   41.3850   21.0710 C   0  0  0  0  0  0  0  0  0  0  0  0
   38.3110   38.4650   22.5750 N   0  0  0  0  0  0  0  0  0  0  0  0
   36.1270   38.0340   24.6480 O   0  0  0  0  0  0  0  0  0  0  0  0
   37.7340   37.6900   26.3000 C   0  0  0  0  0  0  0  0  0  0  0  0
   35.6070   39.9870   19.9930 C   0  0  0  0  0  0  0  0  0  0  0  0
   37.6970   36.4470   24.0190 N   0  0  0  0  0  0  0  0  0  0  0  0
   36.9550   37.4060   27.3840 N   0  0  0  0  0  0  0  0  0  0  0  0
   36.4950   42.3400   20.6290 C   0  0  0  0  0  0  0  0  0  0  0  0
   38.8930   35.9590   27.3790 C   0  0  0  0  0  0  0  0  0  0  0  0
  2 20  1  0
  4  3  2  0
  4 10  1  0
  5 13  1  0
  6 19  1  0
  7  5  1  0
  9  5  2  0
  9  4  1  0
 10 17  1  0
 11 16  1  0
 11 19  1  0
 11 12  1  0
 12  7  1  0
 13 10  1  0
 14  1  2  0
 15  1  1  0
 15  2  1  0
 15 18  1  0
 17  1  1  0
 18  8  1  0
 19 12  2  0
 20  8  1  0
M  END
$$$$

     RDKit          3D

 14 14  0  0  0  0  0  0  0  0999 V2000
   39.7030   38.7370   25.4500 N   0  0  0  0  0  0  0  0  0  0  0  0
   37.7170   37.7060   22.6440 C   0  0  0  0  0  0  0  0  0  0  0  0
   39.0070   38.3680   23.0870 C   0  0  0  0  0  0  0  0  0  0  0  0
   40.0700   37.4880   23.3600 O   0  0  0  0  0  0  0  0  0  0  0  0
   36.6800   37.6970   24.9740 C   0  0  0  0  0  0  0  0  0  0  0  0
   37.9600   36.0420   20.5940 N   0  0  0  0  0  0  0  0  0  0  0  0
   38.8350   39.1970   24.3650 C   0  0  0  0  0  0  0  0  0  0  0  0
   36.4270   35.6950   23.4590 O   0  0  0  0  0  0  0  0  0  0  0  0
   36.7840   38.8180   22.3280 N   0  0  0  0  0  0  0  0  0  0  0  0
   38.2230   36.9340   21.4220 C   0  0  0  0  0  0  0  0  0  0  0  0
   37.1280   36.8880   23.7030 C   0  0  0  0  0  0  0  0  0  0  0  0
   35.6320   38.5790   24.4470 N   0  0  0  0  0  0  0  0  0  0  0  0
   37.3090   37.4720   25.9460 O   0  0  0  0  0  0  0  0  0  0  0  0
   35.5370   39.0100   23.0980 C   0  0  0  0  0  0  0  0  0  0  0  0
  2 10  1  0
  2  3  1  0
  2 11  1  0
  3  4  1  0
  3  7  1  0
  5 13  2  0
  6 10  2  0
  7  1  1  0
  9  2  1  0
  9 14  1  0
 11  8  1  0
 11  5  1  0
 12  5  1  0
 14 12  1  0
M  END
$$$$

     RDKit          3D

  9  8  0  0  0  0  0  0  0  0999 V2000
   36.3390   38.8710   24.2660 O   0  0  0  0  0  0  0  0  0  0  0  0
   39.7380   37.1170   23.1880 O   0  0  0  0  0  0  0  0  0  0  0  0
   38.5670   37.6780   26.2740 O   0  0  0  0  0  0  0  0  0  0  0  0
   36.8010   37.7180   24.5930 C   0  0  0  0  0  0  0  0  0  0  0  0
   38.9850   39.4410   23.6040 C   0  0  0  0  0  0  0  0  0  0  0  0
   35.9770   36.8330   24.5220 O   0  0  0  0  0  0  0  0  0  0  0  0
   38.2120   37.4590   25.0810 C   0  0  0  0  0  0  0  0  0  0  0  0
   38.1110   39.5070   22.4350 O   0  0  0  0  0  0  0  0  0  0  0  0
   39.0630   37.9150   23.9470 C   0  0  0  0  0  0  0  0  0  0  0  0
  1  4  2  0
  4  7  1  0
  5  9  1  0
  6  4  1  0
  7  3  2  0
  8  5  1  0
  9  2  1  0
  9  7  1  0
M  END
$$$$

     RDKit          3D

 15 16  0  0  0  0  0  0  0  0999 V2000
   36.2920   36.1290   21.8530 C   0  0  0  0  0  0  0  0  0  0  0  0
   37.0690   37.1350   24.8370 C   0  0  0  0  0  0  0  0  0  0  0  0
   37.0820   37.3980   21.9010 C   0  0  0  0  0  0  0  0  0  0  0  0
   37.3530   37.6420   23.3870 C   0  0  0  0  0  0  0  0  0  0  0  0
   34.8600   36.5430   21.2550 C   0  0  0  0  0  0  0  0  0  0  0  0
   35.1550   40.2230   21.8710 C   0  0  0  0  0  0  0  0  0  0  0  0
   34.3740   40.2870   20.9460 O   0  0  0  0  0  0  0  0  0  0  0  0
   38.6290   37.0000   26.7310 C   0  0  0  0  0  0  0  0  0  0  0  0
   36.6140   38.8890   23.3710 O   0  0  0  0  0  0  0  0  0  0  0  0
   40.6290   38.4920   24.9750 C   0  0  0  0  0  0  0  0  0  0  0  0
   38.2760   37.5480   25.5490 C   0  0  0  0  0  0  0  0  0  0  0  0
   34.3220   37.7620   21.9360 N   0  0  0  0  0  0  0  0  0  0  0  0
   39.4210   37.7930   24.5840 C   0  0  0  0  0  0  0  0  0  0  0  0
   35.2880   38.7940   22.5710 C   0  0  0  0  0  0  0  0  0  0  0  0
   38.8230   37.3190   23.2820 C   0  0  0  0  0  0  0  0  0  0  0  0
  1  3  1  0
  2 11  1  0
  4  3  1  0
  4  2  1  0
  5  1  1  0
  5 12  1  0
  6 14  1  0
  7  6  2  0
  9  4  1  0
 11  8  2  0
 12 14  2  0
 13 10  1  0
 13 11  1  0
 14  9  1  0
 15  4  1  0
 15 13  1  0
M  END
$$$$

     RDKit          3D

 15 16  0  0  0  0  0  0  0  0999 V2000
   36.4600   36.4570   23.0100 C   0  0  0  0  0  0  0  0  0  0  0  0
   34.2860   37.1700   22.2560 C   0  0  0  0  0  0  0  0  0  0  0  0
   37.6180   37.5290   23.0640 C   0  0  0  0  0  0  0  0  0  0  0  0
   38.3720   37.9970   25.6330 C   0  0  0  0  0  0  0  0  0  0  0  0
   39.4550   38.2530   26.5060 N   0  0  0  0  0  0  0  0  0  0  0  0
   36.7050   38.5350   22.9280 C   0  0  0  0  0  0  0  0  0  0  0  0
   34.3710   38.4680   22.5040 C   0  0  0  0  0  0  0  0  0  0  0  0
   40.2460   37.9920   23.9330 S   0  0  0  0  0  0  0  0  0  0  0  0
   38.5440   38.3200   24.1280 C   0  0  0  0  0  0  0  0  0  0  0  0
   40.5200   38.1880   25.7500 C   0  0  0  0  0  0  0  0  0  0  0  0
   41.7980   38.0970   26.1710 N   0  0  0  0  0  0  0  0  0  0  0  0
   37.7910   37.3880   26.1330 O   0  0  0  0  0  0  0  0  0  0  0  0
   35.5540   39.1510   22.6520 C   0  0  0  0  0  0  0  0  0  0  0  0
   38.4860   37.0320   21.9030 C   0  0  0  0  0  0  0  0  0  0  0  0
   35.4100   36.3460   22.4030 C   0  0  0  0  0  0  0  0  0  0  0  0
  1  3  1  0
  2 15  1  0
  2  7  2  0
  3 14  1  0
  3  9  1  0
  4 12  2  0
  4  5  1  0
  6  3  1  0
  7 13  1  0
  8 10  1  0
  9  8  1  0
  9  4  1  0
 10 11  1  0
 10  5  1  0
 13  6  1  0
 15  1  1  0
M  END
$$$$

     RDKit          3D

 21 23  0  0  0  0  0  0  0  0999 V2000
   36.2570   38.3820   24.4010 C   0  0  0  0  0  0  0  0  0  0  0  0
   37.9940   36.2910   20.1570 C   0  0  0  0  0  0  0  0  0  0  0  0
   40.3340   36.4720   20.2690 C   0  0  0  0  0  0  0  0  0  0  0  0
   39.0100   37.4470   22.0360 C   0  0  0  0  0  0  0  0  0  0  0  0
   39.7920   37.8290   27.6140 C   0  0  0  0  0  0  0  0  0  0  0  0
   38.8960   38.2640   23.1730 N   0  0  0  0  0  0  0  0  0  0  0  0
   38.9650   36.6290   28.1000 C   0  0  0  0  0  0  0  0  0  0  0  0
   39.1420   36.1520   19.6810 N   0  0  0  0  0  0  0  0  0  0  0  0
   38.9040   38.5510   26.6020 C   0  0  0  0  0  0  0  0  0  0  0  0
   38.4430   35.8930   26.8990 C   0  0  0  0  0  0  0  0  0  0  0  0
   37.8160   37.0400   21.4120 C   0  0  0  0  0  0  0  0  0  0  0  0
   36.8970   35.5720   19.2120 S   0  0  0  0  0  0  0  0  0  0  0  0
   39.1730   36.3850   25.7220 C   0  0  0  0  0  0  0  0  0  0  0  0
   39.1920   38.4970   24.0840 C   0  0  0  0  0  0  0  0  0  0  0  0
   35.4000   37.7430   21.1160 N   0  0  0  0  0  0  0  0  0  0  0  0
   38.5870   37.7280   25.4260 C   0  0  0  0  0  0  0  0  0  0  0  0
   36.0580   35.9910   22.7720 C   0  0  0  0  0  0  0  0  0  0  0  0
   36.4590   37.3130   22.1150 C   0  0  0  0  0  0  0  0  0  0  0  0
   40.2590   37.1940   21.5260 C   0  0  0  0  0  0  0  0  0  0  0  0
   37.1320   37.6430   25.3740 C   0  0  0  0  0  0  0  0  0  0  0  0
   36.4580   38.5360   22.9030 N   0  0  0  0  0  0  0  0  0  0  0  0
  1 20  1  0
  3 19  1  0
  4  6  1  0
  5  7  1  0
  6 14  1  0
  8  2  1  0
  8  3  2  0
  9  5  1  0
 10  7  1  0
 11  2  1  0
 11  4  1  0
 11 18  1  0
 12  2  2  0
 13 10  1  0
 14 16  1  0
 15 18  1  0
 16 13  1  0
 16  9  1  0
 18 17  1  0
 18 21  1  0
 19  4  2  0
 20 16  1  0
 21  1  1  0
M  END
$$$$
