
     RDKit          3D

 15 16  0  0  0  0  0  0  0  0999 V2000
   37.8640   42.5980   30.1400 C   0  0  0  0  0  0  0  0  0  0  0  0
   38.1960   42.3370   27.7880 O   0  0  0  0  0  0  0  0  0  0  0  0
   38.2860   44.9940   29.1220 C   0  0  0  0  0  0  0  0  0  0  0  0
   39.9210   41.7160   29.1830 O   0  0  0  0  0  0  0  0  0  0  0  0
   40.1920   42.3480   30.4960 C   0  0  0  0  0  0  0  0  0  0  0  0
   37.9430   41.8680   25.5550 O   0  0  0  0  0  0  0  0  0  0  0  0
   40.1130   41.3930   26.5550 C   0  0  0  0  0  0  0  0  0  0  0  0
   39.7770   43.5650   30.7320 N   0  0  0  0  0  0  0  0  0  0  0  0
   38.6990   41.3000   26.8840 S   0  0  0  0  0  0  0  0  0  0  0  0
   40.7630   42.1790   32.9130 O   0  0  0  0  0  0  0  0  0  0  0  0
   41.9190   43.2260   31.6810 O   0  0  0  0  0  0  0  0  0  0  0  0
   38.8190   42.4540   29.1400 C   0  0  0  0  0  0  0  0  0  0  0  0
   41.2530   42.1420   31.4670 C   0  0  0  0  0  0  0  0  0  0  0  0
   38.2250   40.0190   27.1850 O   0  0  0  0  0  0  0  0  0  0  0  0
   38.6580   43.7060   29.8190 C   0  0  0  0  0  0  0  0  0  0  0  0
  4  5  1  0
  5  8  2  0
  5 13  1  0
  6  9  1  0
  7  9  1  0
  9 14  1  0
  9  2  1  0
 12  2  1  0
 12  4  1  0
 12 15  1  0
 12  1  1  0
 13 11  1  0
 13 10  1  0
 15  3  1  0
 15  1  1  0
 15  8  1  0
M  END
$$$$

     RDKit          3D

  9  8  0  0  0  0  0  0  0  0999 V2000
   40.4600   41.8760   30.0730 C   0  0  0  0  0  0  0  0  0  0  0  0
   39.9740   44.1840   29.1520 N   0  0  0  0  0  0  0  0  0  0  0  0
   39.8730   41.2480   29.1410 O   0  0  0  0  0  0  0  0  0  0  0  0
   42.5690   39.6100   31.3820 I   0  0  0  0  0  0  0  0  0  0  0  0
   41.3630   41.2990   31.1480 C   0  0  0  0  0  0  0  0  0  0  0  0
   40.7500   41.3570   32.3370 C   0  0  0  0  0  0  0  0  0  0  0  0
   41.3150   40.6780   33.6130 C   0  0  0  0  0  0  0  0  0  0  0  0
   39.8330   43.1070   30.1870 N   0  0  0  0  0  0  0  0  0  0  0  0
   39.7640   42.3690   32.5350 C   0  0  0  0  0  0  0  0  0  0  0  0
  1  8  1  0
  1  5  1  0
  2  8  1  0
  3  1  2  0
  5  4  1  0
  5  6  1  0
  6  9  1  0
  6  7  1  0
M  END
$$$$

     RDKit          3D

 10 10  0  0  0  0  0  0  0  0999 V2000
   40.7040   41.8470   31.9670 O   0  0  0  0  0  0  0  0  0  0  0  0
   43.5730   39.9260   30.3420 Br  0  0  0  0  0  0  0  0  0  0  0  0
   42.9500   41.5070   32.7980 C   0  0  0  0  0  0  0  0  0  0  0  0
   41.6710   41.9920   30.8950 C   0  0  0  0  0  0  0  0  0  0  0  0
   43.0800   41.3450   31.2740 C   0  0  0  0  0  0  0  0  0  0  0  0
   41.4910   42.0210   33.1150 C   0  0  0  0  0  0  0  0  0  0  0  0
   40.7790   41.2260   34.2140 C   0  0  0  0  0  0  0  0  0  0  0  0
   40.1060   43.8650   30.9600 C   0  0  0  0  0  0  0  0  0  0  0  0
   41.4650   43.4300   30.7050 O   0  0  0  0  0  0  0  0  0  0  0  0
   41.8350   41.2070   35.4170 C   0  0  0  0  0  0  0  0  0  0  0  0
  1  6  1  0
  3  6  1  0
  4  9  1  0
  4  5  1  0
  4  1  1  0
  5  2  1  0
  5  3  1  0
  6  7  1  0
  7 10  1  0
  9  8  1  0
M  END
$$$$

     RDKit          3D

  8  7  0  0  0  0  0  0  0  0999 V2000
   41.4830   39.3610   30.4910 O   0  0  0  0  0  0  0  0  0  0  0  0
   41.6350   41.8570   30.5690 C   0  0  0  0  0  0  0  0  0  0  0  0
   41.3700   40.4780   30.0370 C   0  0  0  0  0  0  0  0  0  0  0  0
   39.0360   42.2810   30.6290 C   0  0  0  0  0  0  0  0  0  0  0  0
   40.2900   42.1570   31.1940 C   0  0  0  0  0  0  0  0  0  0  0  0
   40.6240   40.4640   29.1520 O   0  0  0  0  0  0  0  0  0  0  0  0
   41.9130   42.8120   29.5080 N   0  0  0  0  0  0  0  0  0  0  0  0
   40.4520   41.5910   32.6820 C   0  0  0  0  0  0  0  0  0  0  0  0
  2  7  1  0
  2  5  1  0
  3  1  1  0
  3  2  1  0
  4  5  1  0
  5  8  1  0
  6  3  2  0
M  END
$$$$

     RDKit          3D

  8  8  0  0  0  0  0  0  0  0999 V2000
   39.5150   42.3490   31.8650 C   0  0  0  0  0  0  0  0  0  0  0  0
   41.4490   39.5570   30.5270 N   0  0  0  0  0  0  0  0  0  0  0  0
   41.2010   40.1140   29.2360 C   0  0  0  0  0  0  0  0  0  0  0  0
   39.7310   41.2220   30.8720 C   0  0  0  0  0  0  0  0  0  0  0  0
   40.8640   40.3810   31.5550 C   0  0  0  0  0  0  0  0  0  0  0  0
   40.4150   41.2610   29.5320 C   0  0  0  0  0  0  0  0  0  0  0  0
   40.0700   42.5470   28.2040 Br  0  0  0  0  0  0  0  0  0  0  0  0
   40.2880   43.6350   31.5150 C   0  0  0  0  0  0  0  0  0  0  0  0
  2  5  1  0
  3  6  1  0
  3  2  1  0
  4  5  1  0
  4  1  1  0
  6  7  1  0
  6  4  1  0
  8  1  1  0
M  END
$$$$

     RDKit          3D

 11 11  0  0  0  0  0  0  0  0999 V2000
   39.9950   40.7950   32.0850 C   0  0  0  0  0  0  0  0  0  0  0  0
   42.1840   42.0270   28.0190 C   0  0  0  0  0  0  0  0  0  0  0  0
   42.7700   43.3030   27.9900 C   0  0  0  0  0  0  0  0  0  0  0  0
   41.1270   40.1320   31.3400 C   0  0  0  0  0  0  0  0  0  0  0  0
   41.3080   41.8440   29.2350 C   0  0  0  0  0  0  0  0  0  0  0  0
   40.4140   43.0200   29.6820 C   0  0  0  0  0  0  0  0  0  0  0  0
   40.2700   44.2080   28.6940 C   0  0  0  0  0  0  0  0  0  0  0  0
   39.1510   41.9420   31.6090 C   0  0  0  0  0  0  0  0  0  0  0  0
   41.7760   40.6990   30.0980 C   0  0  0  0  0  0  0  0  0  0  0  0
   39.6820   43.1050   30.9690 C   0  0  0  0  0  0  0  0  0  0  0  0
   41.5440   38.9790   31.7860 N   0  0  0  0  0  0  0  0  0  0  0  0
  2  5  1  0
  3  2  1  0
  4 11  1  0
  4  1  2  0
  5  6  1  0
  5  9  2  0
  6 10  2  0
  7  6  1  0
  8  1  1  0
  9  4  1  0
 10  8  1  0
M  END
$$$$

     RDKit          3D

 11 11  0  0  0  0  0  0  0  0999 V2000
   41.8500   42.0640   32.2740 C   0  0  0  0  0  0  0  0  0  0  0  0
   43.3020   42.1430   31.6640 C   0  0  0  0  0  0  0  0  0  0  0  0
   40.7760   42.2730   34.3410 O   0  0  0  0  0  0  0  0  0  0  0  0
   40.5550   41.8270   33.1910 C   0  0  0  0  0  0  0  0  0  0  0  0
   40.1400   41.1160   28.8510 O   0  0  0  0  0  0  0  0  0  0  0  0
   42.4400   42.5790   28.7970 O   0  0  0  0  0  0  0  0  0  0  0  0
   41.1300   42.3740   31.3250 C   0  0  0  0  0  0  0  0  0  0  0  0
   42.2750   41.2860   29.4860 C   0  0  0  0  0  0  0  0  0  0  0  0
   40.9780   41.3260   30.0770 C   0  0  0  0  0  0  0  0  0  0  0  0
   39.4580   41.4720   32.7070 O   0  0  0  0  0  0  0  0  0  0  0  0
   43.4140   41.1700   30.5060 C   0  0  0  0  0  0  0  0  0  0  0  0
  1  4  1  0
  2  1  1  0
  4  3  1  0
  7  1  1  0
  8  6  1  0
  8  9  1  0
  8 11  1  0
  9  5  1  0
  9  7  1  0
 10  4  2  0
 11  2  1  0
M  END
$$$$

     RDKit          3D

 12 12  0  0  0  0  0  0  0  0999 V2000
   43.2900   41.4870   28.6090 O   0  0  0  0  0  0  0  0  0  0  0  0
   38.6280   41.4150   32.0210 O   0  0  0  0  0  0  0  0  0  0  0  0
   39.6250   43.2560   31.4910 O   0  0  0  0  0  0  0  0  0  0  0  0
   42.7450   42.8730   30.4740 O   0  0  0  0  0  0  0  0  0  0  0  0
   41.2270   40.2600   28.6220 C   0  0  0  0  0  0  0  0  0  0  0  0
   42.6080   40.1990   30.5650 N   0  0  0  0  0  0  0  0  0  0  0  0
   41.3020   39.8180   31.5180 C   0  0  0  0  0  0  0  0  0  0  0  0
   40.6560   41.1150   29.6530 C   0  0  0  0  0  0  0  0  0  0  0  0
   42.6970   41.4590   30.1890 P   0  0  0  0  0  0  0  0  0  0  0  0
   39.7360   42.0670   31.8770 C   0  0  0  0  0  0  0  0  0  0  0  0
   43.2340   41.2910   31.6890 O   0  0  0  0  0  0  0  0  0  0  0  0
   40.7840   41.2300   31.2210 C   0  0  0  0  0  0  0  0  0  0  0  0
  3 10  1  0
  6  7  1  0
  6 11  1  0
  8  5  1  0
  8  9  1  0
  8 12  1  0
  9  1  2  0
  9  4  1  0
  9  6  1  0
 10  2  1  0
 12  7  1  0
 12 10  1  0
M  END
$$$$

     RDKit          3D

  5  4  0  0  0  0  0  0  0  0999 V2000
   39.9520   42.7150   30.5100 O   0  0  0  0  0  0  0  0  0  0  0  0
   40.3200   40.0390   31.7100 C   0  0  0  0  0  0  0  0  0  0  0  0
   42.6020   40.1880   31.0430 O   0  0  0  0  0  0  0  0  0  0  0  0
   41.1720   42.0290   30.2580 C   0  0  0  0  0  0  0  0  0  0  0  0
   41.2440   40.5250   30.6060 C   0  0  0  0  0  0  0  0  0  0  0  0
  4  1  1  0
  4  5  1  0
  5  3  1  0
  5  2  1  0
M  END
$$$$

     RDKit          3D

 25 27  0  0  0  0  0  0  0  0999 V2000
   42.7660   40.9230   28.7780 S   0  0  0  0  0  0  0  0  0  0  0  0
   36.2640   43.7920   28.6670 C   0  0  0  0  0  0  0  0  0  0  0  0
   41.0160   40.3580   26.6750 N   0  0  0  0  0  0  0  0  0  0  0  0
   38.9790   39.0200   28.6080 O   0  0  0  0  0  0  0  0  0  0  0  0
   40.1150   37.6280   32.2000 C   0  0  0  0  0  0  0  0  0  0  0  0
   39.9750   41.0470   31.7740 N   0  0  0  0  0  0  0  0  0  0  0  0
   40.9800   38.9620   31.9500 C   0  0  0  0  0  0  0  0  0  0  0  0
   35.1600   41.0470   27.8830 C   0  0  0  0  0  0  0  0  0  0  0  0
   41.2040   40.8360   30.9790 C   0  0  0  0  0  0  0  0  0  0  0  0
   42.5790   41.3440   31.4410 C   0  0  0  0  0  0  0  0  0  0  0  0
   37.9690   40.8890   27.4820 C   0  0  0  0  0  0  0  0  0  0  0  0
   41.1270   40.7930   28.1390 C   0  0  0  0  0  0  0  0  0  0  0  0
   36.3020   40.1480   26.8780 C   0  0  0  0  0  0  0  0  0  0  0  0
   45.7130   42.5140   30.8140 O   0  0  0  0  0  0  0  0  0  0  0  0
   45.9030   40.2220   30.6990 O   0  0  0  0  0  0  0  0  0  0  0  0
   43.6510   41.2280   30.4390 C   0  0  0  0  0  0  0  0  0  0  0  0
   37.4560   41.2200   28.9160 C   0  0  0  0  0  0  0  0  0  0  0  0
   38.8270   41.9110   29.5260 C   0  0  0  0  0  0  0  0  0  0  0  0
   36.0990   42.0970   29.0650 C   0  0  0  0  0  0  0  0  0  0  0  0
   45.1410   41.4070   30.5970 C   0  0  0  0  0  0  0  0  0  0  0  0
   38.5500   39.6110   27.3910 C   0  0  0  0  0  0  0  0  0  0  0  0
   39.4390   42.7510   32.3570 C   0  0  0  0  0  0  0  0  0  0  0  0
   38.6260   43.0710   30.8860 S   0  0  0  0  0  0  0  0  0  0  0  0
   40.9950   39.5680   30.4900 C   0  0  0  0  0  0  0  0  0  0  0  0
   40.1790   41.2140   29.4290 C   0  0  0  0  0  0  0  0  0  0  0  0
  1 16  1  0
  6 22  1  0
  7  5  1  0
  8 19  1  0
  9 24  1  0
  9 10  1  0
  9  6  1  0
 11 21  1  0
 11 17  1  0
 12  3  1  0
 12  1  1  0
 12 25  1  0
 13 11  1  0
 13  8  1  0
 16 20  1  0
 16 10  1  0
 17 19  1  0
 17 18  1  0
 18 23  1  0
 19  2  1  0
 20 15  2  0
 20 14  1  0
 21  4  1  0
 23 22  1  0
 24  7  1  0
 25 18  1  0
 25  9  1  0
M  END
$$$$

     RDKit          3D

  7  6  0  0  0  0  0  0  0  0999 V2000
   41.9970   41.3180   29.8410 C   0  0  0  0  0  0  0  0  0  0  0  0
   40.0550   42.4680   28.8500 O   0  0  0  0  0  0  0  0  0  0  0  0
   42.1150   40.3080   30.9890 C   0  0  0  0  0  0  0  0  0  0  0  0
   40.5750   42.2590   29.9550 C   0  0  0  0  0  0  0  0  0  0  0  0
   41.6840   40.7670   28.5480 O   0  0  0  0  0  0  0  0  0  0  0  0
   43.5910   41.5580   29.6190 C   0  0  0  0  0  0  0  0  0  0  0  0
   40.1400   42.6760   31.1120 O   0  0  0  0  0  0  0  0  0  0  0  0
  1  4  1  0
  1  3  1  0
  2  4  2  0
  4  7  1  0
  5  1  1  0
  6  1  1  0
M  END
$$$$

     RDKit          3D

 14 15  0  0  0  0  0  0  0  0999 V2000
   40.6440   40.4610   30.6720 C   0  0  0  0  0  0  0  0  0  0  0  0
   40.1350   41.7370   32.9630 C   0  0  0  0  0  0  0  0  0  0  0  0
   44.0170   42.0870   31.1590 C   0  0  0  0  0  0  0  0  0  0  0  0
   42.3710   43.5990   27.2160 O   0  0  0  0  0  0  0  0  0  0  0  0
   42.8310   41.5970   30.2210 C   0  0  0  0  0  0  0  0  0  0  0  0
   41.3270   42.3960   32.2720 C   0  0  0  0  0  0  0  0  0  0  0  0
   44.5060   41.1120   32.3650 C   0  0  0  0  0  0  0  0  0  0  0  0
   39.5010   40.8820   31.8530 N   0  0  0  0  0  0  0  0  0  0  0  0
   42.8630   42.6540   29.1830 N   0  0  0  0  0  0  0  0  0  0  0  0
   41.9450   41.3270   27.4780 O   0  0  0  0  0  0  0  0  0  0  0  0
   45.1090   42.5270   30.3350 C   0  0  0  0  0  0  0  0  0  0  0  0
   41.5000   41.5430   31.0190 N   0  0  0  0  0  0  0  0  0  0  0  0
   42.1830   42.5630   27.8870 C   0  0  0  0  0  0  0  0  0  0  0  0
   44.5340   43.3040   29.2370 C   0  0  0  0  0  0  0  0  0  0  0  0
  1  8  1  0
  3  7  1  0
  4 13  2  0
  5  9  1  0
  5 12  1  0
  5  3  1  0
  6  2  1  0
  8  2  1  0
  9 14  1  0
 10 13  1  0
 11  3  1  0
 12  1  1  0
 12  6  1  0
 13  9  1  0
 14 11  1  0
M  END
$$$$

     RDKit          3D

  6  5  0  0  0  0  0  0  0  0999 V2000
   41.8330   41.9400   30.8920 O   0  0  0  0  0  0  0  0  0  0  0  0
   40.7170   43.5430   32.8140 C   0  0  0  0  0  0  0  0  0  0  0  0
   41.5140   41.2220   32.1720 P   0  0  0  0  0  0  0  0  0  0  0  0
   40.5700   42.3090   33.0890 C   0  0  0  0  0  0  0  0  0  0  0  0
   42.7330   40.8960   33.0490 O   0  0  0  0  0  0  0  0  0  0  0  0
   40.6260   40.0070   31.9730 O   0  0  0  0  0  0  0  0  0  0  0  0
  1  3  2  0
  2  4  2  0
  3  5  1  0
  3  4  1  0
  6  3  1  0
M  END
$$$$

     RDKit          3D

 25 25  0  0  0  0  0  0  0  0999 V2000
   38.4630   40.2990   28.0960 S   0  0  0  0  0  0  0  0  0  0  0  0
   43.0580   39.2650   32.4530 C   0  0  0  0  0  0  0  0  0  0  0  0
   37.0600   41.3000   25.8280 C   0  0  0  0  0  0  0  0  0  0  0  0
   38.0130   38.9540   28.1160 O   0  0  0  0  0  0  0  0  0  0  0  0
   37.5270   43.7490   25.4360 N   0  0  0  0  0  0  0  0  0  0  0  0
   37.6390   41.3810   28.8010 N   0  0  0  0  0  0  0  0  0  0  0  0
   45.4670   39.0340   31.8330 F   0  0  0  0  0  0  0  0  0  0  0  0
   36.4170   41.6730   28.5960 C   0  0  0  0  0  0  0  0  0  0  0  0
   35.7490   39.6900   25.3050 O   0  0  0  0  0  0  0  0  0  0  0  0
   39.5520   40.1640   31.2670 C   0  0  0  0  0  0  0  0  0  0  0  0
   36.1130   40.5280   25.6620 C   0  0  0  0  0  0  0  0  0  0  0  0
   43.1400   39.9640   33.6480 N   0  0  0  0  0  0  0  0  0  0  0  0
   39.9240   40.5100   28.7200 C   0  0  0  0  0  0  0  0  0  0  0  0
   45.3450   39.0350   33.2860 C   0  0  0  0  0  0  0  0  0  0  0  0
   41.6620   40.2950   30.3300 N   0  0  0  0  0  0  0  0  0  0  0  0
   37.4080   42.5230   25.3900 C   0  0  0  0  0  0  0  0  0  0  0  0
   40.3010   39.9720   29.9610 C   0  0  0  0  0  0  0  0  0  0  0  0
   35.4580   42.1790   28.2480 O   0  0  0  0  0  0  0  0  0  0  0  0
   40.6020   39.9090   32.3260 C   0  0  0  0  0  0  0  0  0  0  0  0
   41.9570   39.9090   31.6270 C   0  0  0  0  0  0  0  0  0  0  0  0
   40.4010   38.6610   32.9000 O   0  0  0  0  0  0  0  0  0  0  0  0
   44.6470   40.3050   33.7470 C   0  0  0  0  0  0  0  0  0  0  0  0
   38.9260   41.4430   31.4350 O   0  0  0  0  0  0  0  0  0  0  0  0
   38.6060   40.8090   26.4960 S   0  0  0  0  0  0  0  0  0  0  0  0
   42.5080   37.9560   32.7920 C   0  0  0  0  0  0  0  0  0  0  0  0
  1  4  1  0
  1 13  1  0
  1  6  1  0
  2 25  1  0
  2 12  1  0
  3 16  1  0
  3 24  1  0
  7 14  1  0
  8  6  2  0
  9 11  2  0
 10 23  1  0
 10 19  1  0
 11  3  1  0
 12 22  1  0
 14 22  1  0
 15 20  1  0
 16  5  3  0
 17 13  1  0
 17 15  1  0
 17 10  1  0
 18  8  2  0
 19 21  1  0
 20 19  1  0
 20  2  1  0
 24  1  1  0
M  END
$$$$

     RDKit          3D

 20 20  0  0  0  0  0  0  0  0999 V2000
   39.3750   41.4990   32.5310 C   0  0  0  0  0  0  0  0  0  0  0  0
   40.5030   40.0570   29.2400 C   0  0  0  0  0  0  0  0  0  0  0  0
   42.4830   39.7350   31.5090 C   0  0  0  0  0  0  0  0  0  0  0  0
   41.1540   43.3410   34.3490 O   0  0  0  0  0  0  0  0  0  0  0  0
   40.9580   39.4970   31.8360 C   0  0  0  0  0  0  0  0  0  0  0  0
   41.3320   41.0280   33.7650 C   0  0  0  0  0  0  0  0  0  0  0  0
   40.6030   40.6530   32.7750 C   0  0  0  0  0  0  0  0  0  0  0  0
   39.5640   42.2260   31.3050 C   0  0  0  0  0  0  0  0  0  0  0  0
   39.7060   40.4010   26.7170 O   0  0  0  0  0  0  0  0  0  0  0  0
   43.1670   42.3280   34.8150 O   0  0  0  0  0  0  0  0  0  0  0  0
   41.8080   42.2950   34.3880 C   0  0  0  0  0  0  0  0  0  0  0  0
   39.4190   42.0240   28.7120 C   0  0  0  0  0  0  0  0  0  0  0  0
   40.0770   41.6970   27.3930 C   0  0  0  0  0  0  0  0  0  0  0  0
   42.8490   40.0560   30.3460 O   0  0  0  0  0  0  0  0  0  0  0  0
   39.5560   39.2410   29.2010 O   0  0  0  0  0  0  0  0  0  0  0  0
   43.2910   39.8510   32.4190 O   0  0  0  0  0  0  0  0  0  0  0  0
   43.9820   42.9410   33.8020 C   0  0  0  0  0  0  0  0  0  0  0  0
   39.3190   39.6690   28.1580 C   0  0  0  0  0  0  0  0  0  0  0  0
   39.4800   43.5040   29.0480 O   0  0  0  0  0  0  0  0  0  0  0  0
   39.9440   41.1310   29.8910 C   0  0  0  0  0  0  0  0  0  0  0  0
  1  7  1  0
  2 20  1  0
  3  5  1  0
  3 16  1  0
  4 11  2  0
  6 11  1  0
  7  5  1  0
  7  6  1  0
  8  1  1  0
  9 13  1  0
  9 18  1  0
 11 10  1  0
 12 19  1  0
 12 20  1  0
 13 12  1  0
 14  3  2  0
 15  2  1  0
 17 10  1  0
 18 15  1  0
 20  8  1  0
M  END
$$$$

     RDKit          3D

 18 20  0  0  0  0  0  0  0  0999 V2000
   41.7000   44.3470   31.7450 C   0  0  0  0  0  0  0  0  0  0  0  0
   43.6980   41.5170   31.4100 C   0  0  0  0  0  0  0  0  0  0  0  0
   41.5440   42.8450   31.7710 C   0  0  0  0  0  0  0  0  0  0  0  0
   41.6170   39.6400   32.6310 C   0  0  0  0  0  0  0  0  0  0  0  0
   41.3180   45.4490   32.1690 O   0  0  0  0  0  0  0  0  0  0  0  0
   40.7250   42.0730   32.5740 C   0  0  0  0  0  0  0  0  0  0  0  0
   42.5700   42.9440   29.6050 C   0  0  0  0  0  0  0  0  0  0  0  0
   42.4070   41.9980   30.8130 C   0  0  0  0  0  0  0  0  0  0  0  0
   40.4700   37.6140   32.2590 C   0  0  0  0  0  0  0  0  0  0  0  0
   40.4850   38.4340   31.0610 N   0  0  0  0  0  0  0  0  0  0  0  0
   42.3280   45.6050   29.6190 O   0  0  0  0  0  0  0  0  0  0  0  0
   41.0500   38.4640   33.3660 C   0  0  0  0  0  0  0  0  0  0  0  0
   44.0090   44.8650   31.1010 O   0  0  0  0  0  0  0  0  0  0  0  0
   41.4670   39.5010   31.1400 C   0  0  0  0  0  0  0  0  0  0  0  0
   40.3720   41.0040   29.7100 O   0  0  0  0  0  0  0  0  0  0  0  0
   41.4690   40.8530   30.4520 C   0  0  0  0  0  0  0  0  0  0  0  0
   40.6940   40.7000   33.0920 N   0  0  0  0  0  0  0  0  0  0  0  0
   42.8850   44.5620   30.4820 S   0  0  0  0  0  0  0  0  0  0  0  0
  1  3  1  0
  1  5  2  0
  3  6  1  0
  4 17  1  0
  4 12  1  0
  6 17  2  0
  7 18  1  0
  7  8  1  0
  8  2  1  0
  8  3  1  0
  9 12  1  0
 10  9  1  0
 11 18  2  0
 14 10  1  0
 14  4  1  0
 16 15  1  0
 16  8  1  0
 16 14  1  0
 18 13  2  0
 18  1  1  0
M  END
$$$$

     RDKit          3D

  7  6  0  0  0  0  0  0  0  0999 V2000
   38.6260   42.4640   30.5000 C   0  0  0  0  0  0  0  0  0  0  0  0
   42.1550   41.3130   29.5430 O   0  0  0  0  0  0  0  0  0  0  0  0
   40.8760   41.5680   29.6250 C   0  0  0  0  0  0  0  0  0  0  0  0
   39.7630   40.2040   30.9400 C   0  0  0  0  0  0  0  0  0  0  0  0
   40.8420   43.1490   30.9070 O   0  0  0  0  0  0  0  0  0  0  0  0
   40.0130   41.9300   30.6220 C   0  0  0  0  0  0  0  0  0  0  0  0
   40.2450   41.8070   28.5130 O   0  0  0  0  0  0  0  0  0  0  0  0
  1  6  1  0
  2  3  1  0
  3  6  1  0
  6  5  1  0
  6  4  1  0
  7  3  2  0
M  END
$$$$

     RDKit          3D

 18 19  0  0  0  0  0  0  0  0999 V2000
   37.4470   40.1090   26.8950 O   0  0  0  0  0  0  0  0  0  0  0  0
   43.7250   41.2570   32.4190 O   0  0  0  0  0  0  0  0  0  0  0  0
   44.3760   42.4360   29.7560 C   0  0  0  0  0  0  0  0  0  0  0  0
   40.4290   42.1490   28.4870 C   0  0  0  0  0  0  0  0  0  0  0  0
   37.9780   40.4730   27.9460 C   0  0  0  0  0  0  0  0  0  0  0  0
   38.4050   42.2680   29.6580 C   0  0  0  0  0  0  0  0  0  0  0  0
   41.0230   39.8400   31.0070 C   0  0  0  0  0  0  0  0  0  0  0  0
   43.7210   43.8120   30.0600 C   0  0  0  0  0  0  0  0  0  0  0  0
   39.0680   39.7100   28.7210 C   0  0  0  0  0  0  0  0  0  0  0  0
   40.3900   40.5900   33.5910 O   0  0  0  0  0  0  0  0  0  0  0  0
   40.3850   40.6370   32.1780 C   0  0  0  0  0  0  0  0  0  0  0  0
   43.0500   41.2310   31.4100 C   0  0  0  0  0  0  0  0  0  0  0  0
   41.5100   41.3960   31.4400 C   0  0  0  0  0  0  0  0  0  0  0  0
   39.8010   40.0970   29.9970 C   0  0  0  0  0  0  0  0  0  0  0  0
   39.5740   41.5830   29.4650 C   0  0  0  0  0  0  0  0  0  0  0  0
   37.7010   41.7470   28.6630 C   0  0  0  0  0  0  0  0  0  0  0  0
   43.4220   41.3250   30.0480 O   0  0  0  0  0  0  0  0  0  0  0  0
   42.0380   38.8430   31.2710 O   0  0  0  0  0  0  0  0  0  0  0  0
  1  5  2  0
  3 17  1  0
  3  8  1  0
  5 16  1  0
  5  9  1  0
  7 18  1  0
  7 13  1  0
  7 11  1  0
 11 10  1  0
 12  2  2  0
 13 12  1  0
 13 11  1  0
 14  9  1  0
 14  7  1  0
 15  4  1  0
 15  6  1  0
 15 14  1  0
 16  6  1  0
 17 12  1  0
M  END
$$$$

     RDKit          3D

 11 11  0  0  0  0  0  0  0  0999 V2000
   45.5960   43.5250   32.3710 O   0  0  0  0  0  0  0  0  0  0  0  0
   40.4570   41.5720   33.2930 C   0  0  0  0  0  0  0  0  0  0  0  0
   41.5090   41.0480   30.6200 C   0  0  0  0  0  0  0  0  0  0  0  0
   42.0020   42.6350   33.1220 S   0  0  0  0  0  0  0  0  0  0  0  0
   42.0130   42.3340   31.3400 C   0  0  0  0  0  0  0  0  0  0  0  0
   42.2990   40.3900   29.9480 O   0  0  0  0  0  0  0  0  0  0  0  0
   40.2850   40.9950   30.6110 O   0  0  0  0  0  0  0  0  0  0  0  0
   39.3430   42.3020   32.7060 C   0  0  0  0  0  0  0  0  0  0  0  0
   44.6120   43.1850   31.4960 C   0  0  0  0  0  0  0  0  0  0  0  0
   44.3830   41.8290   31.5910 C   0  0  0  0  0  0  0  0  0  0  0  0
   43.4670   42.4450   30.8290 C   0  0  0  0  0  0  0  0  0  0  0  0
  4  2  1  0
  5  3  1  0
  5  4  1  0
  6  3  2  0
  7  3  1  0
  8  2  1  0
  9 10  1  0
  9  1  1  0
 11  5  1  0
 11  9  1  0
 11 10  1  0
M  END
$$$$

     RDKit          3D

  9  9  0  0  0  0  0  0  0  0999 V2000
   44.7010   42.0230   28.8690 N   0  0  0  0  0  0  0  0  0  0  0  0
   41.5600   41.0600   30.4740 N   0  0  0  0  0  0  0  0  0  0  0  0
   40.3630   40.7420   32.5040 C   0  0  0  0  0  0  0  0  0  0  0  0
   39.3900   41.6910   32.1040 C   0  0  0  0  0  0  0  0  0  0  0  0
   40.6040   41.9970   30.0340 C   0  0  0  0  0  0  0  0  0  0  0  0
   42.7740   40.8900   29.7070 C   0  0  0  0  0  0  0  0  0  0  0  0
   39.4600   42.3650   30.8450 C   0  0  0  0  0  0  0  0  0  0  0  0
   43.4960   42.2170   29.7040 C   0  0  0  0  0  0  0  0  0  0  0  0
   41.4490   40.4140   31.6500 C   0  0  0  0  0  0  0  0  0  0  0  0
  1  8  1  0
  2  9  1  0
  4  3  1  0
  5  2  1  0
  5  7  1  0
  6  2  1  0
  7  4  2  0
  8  6  1  0
  9  3  2  0
M  END
$$$$
