
     RDKit          3D

 24 25  0  0  0  0  0  0  0  0999 V2000
   40.1240   41.5310   29.6550 N   0  0  0  0  0  0  0  0  0  0  0  0
   31.0300   40.7160   23.9760 O   0  0  0  0  0  0  0  0  0  0  0  0
   34.8380   41.2100   26.0790 C   0  0  0  0  0  0  0  0  0  0  0  0
   31.8000   39.9320   23.0360 C   0  0  0  0  0  0  0  0  0  0  0  0
   32.8460   39.1550   23.8140 C   0  0  0  0  0  0  0  0  0  0  0  0
   33.9240   40.2770   23.9650 N   0  0  0  0  0  0  0  0  0  0  0  0
   37.3200   41.0780   26.7190 N   0  0  0  0  0  0  0  0  0  0  0  0
   29.0380   41.7220   24.7200 C   0  0  0  0  0  0  0  0  0  0  0  0
   31.6400   39.9610   21.8150 O   0  0  0  0  0  0  0  0  0  0  0  0
   36.3040   41.7810   25.8010 C   0  0  0  0  0  0  0  0  0  0  0  0
   41.1510   41.4880   30.5950 O   0  0  0  0  0  0  0  0  0  0  0  0
   33.5380   41.0740   25.2400 C   0  0  0  0  0  0  0  0  0  0  0  0
   40.2080   39.0340   29.0620 C   0  0  0  0  0  0  0  0  0  0  0  0
   36.9730   40.3700   27.6040 C   0  0  0  0  0  0  0  0  0  0  0  0
   36.7650   41.4140   24.4230 C   0  0  0  0  0  0  0  0  0  0  0  0
   38.9610   39.6490   28.6590 C   0  0  0  0  0  0  0  0  0  0  0  0
   29.6680   40.3680   24.2440 C   0  0  0  0  0  0  0  0  0  0  0  0
   40.7800   40.8710   27.7440 O   0  0  0  0  0  0  0  0  0  0  0  0
   40.1190   40.4520   28.8040 C   0  0  0  0  0  0  0  0  0  0  0  0
   37.7200   39.4900   28.3680 N   0  0  0  0  0  0  0  0  0  0  0  0
   35.9240   39.2660   24.2190 O   0  0  0  0  0  0  0  0  0  0  0  0
   35.6610   40.5260   23.7170 C   0  0  0  0  0  0  0  0  0  0  0  0
   28.9170   39.0080   23.9730 C   0  0  0  0  0  0  0  0  0  0  0  0
   29.6420   37.8290   24.7960 C   0  0  0  0  0  0  0  0  0  0  0  0
  1 11  1  0
  2 17  1  0
  4  5  1  0
  4  2  1  0
  5  6  1  0
  6 12  1  0
  7 14  2  3
  9  4  2  0
 10  3  1  0
 10  7  1  0
 12  3  1  0
 14 20  1  0
 15 10  1  0
 16 20  1  0
 16 19  1  0
 16 13  1  0
 17  8  1  0
 19 18  1  0
 19 13  1  0
 19  1  1  0
 22  6  1  0
 22 21  1  0
 22 15  1  0
 23 17  1  0
 23 24  1  0
M  END
$$$$

     RDKit          3D

 12 11  0  0  0  0  0  0  0  0999 V2000
   37.4970   39.1140   28.2890 N   0  0  0  0  0  0  0  0  0  0  0  0
   36.3930   42.8860   25.4160 O   0  0  0  0  0  0  0  0  0  0  0  0
   37.9320   41.5950   27.1370 C   0  0  0  0  0  0  0  0  0  0  0  0
   36.7610   41.0160   26.8310 C   0  0  0  0  0  0  0  0  0  0  0  0
   35.9580   38.7500   26.7300 O   0  0  0  0  0  0  0  0  0  0  0  0
   36.6590   39.5460   27.2680 C   0  0  0  0  0  0  0  0  0  0  0  0
   33.1580   41.1830   25.8620 C   0  0  0  0  0  0  0  0  0  0  0  0
   37.8430   42.6770   27.7320 O   0  0  0  0  0  0  0  0  0  0  0  0
   34.4220   41.3710   23.3750 C   0  0  0  0  0  0  0  0  0  0  0  0
   34.6630   40.9340   25.0640 S   0  0  0  0  0  0  0  0  0  0  0  0
   39.0360   41.0270   26.8380 O   0  0  0  0  0  0  0  0  0  0  0  0
   36.0230   41.8110   25.8290 C   0  0  0  0  0  0  0  0  0  0  0  0
  2 12  2  0
  3  8  1  0
  4 12  1  0
  4  3  1  0
  4  6  1  0
  5  6  2  0
  6  1  1  0
  9 10  1  0
 10 12  1  0
 10  7  1  0
 11  3  2  0
M  END
$$$$

     RDKit          3D

 13 12  0  0  0  0  0  0  0  0999 V2000
   36.2220   39.8420   26.5000 C   0  0  0  0  0  0  0  0  0  0  0  0
   33.8460   42.0610   25.0220 C   0  0  0  0  0  0  0  0  0  0  0  0
   36.4600   39.1560   27.0090 O   0  0  0  0  0  0  0  0  0  0  0  0
   34.5000   40.7190   25.5000 C   0  0  0  0  0  0  0  0  0  0  0  0
   32.4120   41.5820   24.8630 C   0  0  0  0  0  0  0  0  0  0  0  0
   35.1790   40.5130   23.3180 O   0  0  0  0  0  0  0  0  0  0  0  0
   30.2730   39.7040   26.3650 C   0  0  0  0  0  0  0  0  0  0  0  0
   35.0390   38.7100   24.5830 O   0  0  0  0  0  0  0  0  0  0  0  0
   34.8910   39.9590   24.3680 C   0  0  0  0  0  0  0  0  0  0  0  0
   31.2950   40.9590   24.5650 C   0  0  0  0  0  0  0  0  0  0  0  0
   30.8030   40.0230   23.7750 C   0  0  0  0  0  0  0  0  0  0  0  0
   30.2860   40.8380   25.4190 C   0  0  0  0  0  0  0  0  0  0  0  0
   35.8780   40.9600   25.9720 N   0  0  0  0  0  0  0  0  0  0  0  0
  1  3  2  0
  4  2  1  0
  4 13  1  0
  5  2  1  0
  6  9  2  0
  9  8  1  0
  9  4  1  0
 10  5  1  0
 10 12  1  0
 11 10  2  0
 12  7  1  0
 13  1  2  0
M  END
$$$$

     RDKit          3D

 10  9  0  0  0  0  0  0  0  0999 V2000
   36.5870   38.6360   26.1980 O   0  0  0  0  0  0  0  0  0  0  0  0
   38.2690   42.1910   25.6930 O   0  0  0  0  0  0  0  0  0  0  0  0
   35.9700   43.1950   25.8040 C   0  0  0  0  0  0  0  0  0  0  0  0
   34.8860   43.1870   24.6960 C   0  0  0  0  0  0  0  0  0  0  0  0
   36.6400   40.3870   27.4160 O   0  0  0  0  0  0  0  0  0  0  0  0
   34.0910   42.0150   24.6190 O   0  0  0  0  0  0  0  0  0  0  0  0
   36.5320   40.7730   25.1280 C   0  0  0  0  0  0  0  0  0  0  0  0
   36.8460   42.0060   25.6010 N   0  0  0  0  0  0  0  0  0  0  0  0
   36.6360   39.8770   26.3270 C   0  0  0  0  0  0  0  0  0  0  0  0
   35.0220   44.4310   23.9330 C   0  0  0  0  0  0  0  0  0  0  0  0
  1  9  2  0
  4 10  1  0
  4  3  1  0
  6  4  1  0
  7  8  1  0
  7  9  1  0
  8  2  1  0
  8  3  1  0
  9  5  1  0
M  END
$$$$

     RDKit          3D

 12 13  0  0  0  0  0  0  0  0999 V2000
   36.5320   43.4500   25.1010 S   0  0  0  0  0  0  0  0  0  0  0  0
   37.5210   41.8470   25.1240 C   0  0  0  0  0  0  0  0  0  0  0  0
   36.4240   40.0590   25.9290 C   0  0  0  0  0  0  0  0  0  0  0  0
   35.1420   39.8790   26.5880 C   0  0  0  0  0  0  0  0  0  0  0  0
   34.6010   41.7300   24.9230 C   0  0  0  0  0  0  0  0  0  0  0  0
   36.1560   40.9570   24.7560 C   0  0  0  0  0  0  0  0  0  0  0  0
   38.4310   40.6410   25.3850 N   0  0  0  0  0  0  0  0  0  0  0  0
   34.2800   42.6560   23.8890 C   0  0  0  0  0  0  0  0  0  0  0  0
   35.6930   43.1800   23.3780 C   0  0  0  0  0  0  0  0  0  0  0  0
   34.4060   39.6400   23.1780 C   0  0  0  0  0  0  0  0  0  0  0  0
   35.7800   40.1240   23.5820 O   0  0  0  0  0  0  0  0  0  0  0  0
   36.2130   40.7990   27.1160 O   0  0  0  0  0  0  0  0  0  0  0  0
  1  2  1  0
  2  7  1  0
  3  4  1  0
  3 12  1  0
  4 12  1  0
  6 11  1  0
  6  5  1  0
  6  2  1  0
  6  3  1  0
  8  5  1  0
  9  8  1  0
  9  1  1  0
 10 11  1  0
M  END
$$$$

     RDKit          3D

 10  9  0  0  0  0  0  0  0  0999 V2000
   34.7720   41.0030   26.1130 C   0  0  0  0  0  0  0  0  0  0  0  0
   37.9730   40.3190   24.8560 C   0  0  0  0  0  0  0  0  0  0  0  0
   36.2680   41.0420   26.5480 C   0  0  0  0  0  0  0  0  0  0  0  0
   36.7470   39.9250   25.6620 C   0  0  0  0  0  0  0  0  0  0  0  0
   36.9400   40.7050   27.8710 N   0  0  0  0  0  0  0  0  0  0  0  0
   36.8750   38.7940   26.6660 C   0  0  0  0  0  0  0  0  0  0  0  0
   33.7500   41.3710   24.0130 N   0  0  0  0  0  0  0  0  0  0  0  0
   35.7760   39.5640   24.8580 F   0  0  0  0  0  0  0  0  0  0  0  0
   36.7670   42.3720   26.3700 O   0  0  0  0  0  0  0  0  0  0  0  0
   33.7470   41.8330   25.3940 C   0  0  0  0  0  0  0  0  0  0  0  0
  1  3  1  0
  2  4  1  0
  3  9  1  0
  3  5  1  0
  4  3  1  0
  4  6  1  0
  7 10  1  0
  8  4  1  0
 10  1  1  0
M  END
$$$$

     RDKit          3D

 17 17  0  0  0  0  0  0  0  0999 V2000
   35.9880   40.9130   25.9010 C   0  0  0  0  0  0  0  0  0  0  0  0
   37.9760   40.3950   26.9250 N   0  0  0  0  0  0  0  0  0  0  0  0
   37.2270   38.7060   28.8420 C   0  0  0  0  0  0  0  0  0  0  0  0
   29.9770   36.2070   26.2940 N   0  0  0  0  0  0  0  0  0  0  0  0
   29.5630   36.2100   28.6750 C   0  0  0  0  0  0  0  0  0  0  0  0
   34.2760   40.7930   24.7850 C   0  0  0  0  0  0  0  0  0  0  0  0
   30.4610   37.4290   28.3400 C   0  0  0  0  0  0  0  0  0  0  0  0
   36.9840   39.8290   27.8240 C   0  0  0  0  0  0  0  0  0  0  0  0
   37.9650   42.3350   25.6130 O   0  0  0  0  0  0  0  0  0  0  0  0
   31.3630   38.4600   26.2170 C   0  0  0  0  0  0  0  0  0  0  0  0
   37.3120   41.3610   26.1590 C   0  0  0  0  0  0  0  0  0  0  0  0
   32.3340   40.9450   25.3910 C   0  0  0  0  0  0  0  0  0  0  0  0
   33.5730   40.1720   25.8410 C   0  0  0  0  0  0  0  0  0  0  0  0
   30.1830   37.6100   26.7490 C   0  0  0  0  0  0  0  0  0  0  0  0
   35.0260   42.2380   25.0700 S   0  0  0  0  0  0  0  0  0  0  0  0
   35.8780   39.7090   26.8120 O   0  0  0  0  0  0  0  0  0  0  0  0
   30.8000   40.1840   25.9660 S   0  0  0  0  0  0  0  0  0  0  0  0
  1 15  1  0
  1 11  1  0
  1 16  1  0
  2  8  1  0
  6 15  1  0
  6 13  1  0
  7  5  1  0
  8  3  1  0
  9 11  2  0
 10 14  1  0
 11  2  1  0
 12 13  1  0
 12 17  1  0
 14  4  1  0
 14  7  1  0
 16  8  1  0
 17 10  1  0
M  END
$$$$

     RDKit          3D

 20 20  0  0  0  0  0  0  0  0999 V2000
   32.5160   39.2100   26.0400 C   0  0  0  0  0  0  0  0  0  0  0  0
   30.1990   39.9680   24.2560 C   0  0  0  0  0  0  0  0  0  0  0  0
   30.6760   40.9030   25.3540 C   0  0  0  0  0  0  0  0  0  0  0  0
   32.1550   40.5440   25.7110 C   0  0  0  0  0  0  0  0  0  0  0  0
   36.2050   40.0220   27.0650 C   0  0  0  0  0  0  0  0  0  0  0  0
   30.7980   38.5000   27.4920 O   0  0  0  0  0  0  0  0  0  0  0  0
   36.3180   38.8250   26.7180 O   0  0  0  0  0  0  0  0  0  0  0  0
   33.1250   41.6080   25.6900 C   0  0  0  0  0  0  0  0  0  0  0  0
   31.1380   37.0550   25.8920 O   0  0  0  0  0  0  0  0  0  0  0  0
   39.2760   39.5970   29.1470 O   0  0  0  0  0  0  0  0  0  0  0  0
   37.3450   40.8100   26.3620 C   0  0  0  0  0  0  0  0  0  0  0  0
   34.8210   39.9830   26.3730 C   0  0  0  0  0  0  0  0  0  0  0  0
   38.5960   40.6350   28.5030 C   0  0  0  0  0  0  0  0  0  0  0  0
   31.4410   38.2280   26.3690 C   0  0  0  0  0  0  0  0  0  0  0  0
   34.4200   41.2360   26.0860 C   0  0  0  0  0  0  0  0  0  0  0  0
   37.2740   38.3230   29.1220 C   0  0  0  0  0  0  0  0  0  0  0  0
   38.6800   40.6430   27.0640 N   0  0  0  0  0  0  0  0  0  0  0  0
   33.9130   38.8840   26.2160 C   0  0  0  0  0  0  0  0  0  0  0  0
   38.6890   38.4050   28.6100 C   0  0  0  0  0  0  0  0  0  0  0  0
   37.8520   41.3620   29.0670 O   0  0  0  0  0  0  0  0  0  0  0  0
  1 18  1  0
  1 14  1  0
  2  3  1  0
  3  4  1  0
  4  1  2  0
  5  7  1  0
  8  4  1  0
  8 15  2  0
  9 14  2  0
 11 17  1  0
 11  5  1  0
 12  5  1  0
 13 20  2  0
 13 10  1  0
 14  6  1  0
 15 12  1  0
 17 13  1  0
 18 12  2  0
 19 16  1  0
 19 10  1  0
M  END
$$$$

     RDKit          3D

 18 18  0  0  0  0  0  0  0  0999 V2000
   28.6280   39.1480   24.5440 N   0  0  0  0  0  0  0  0  0  0  0  0
   34.3590   41.4980   26.4500 C   0  0  0  0  0  0  0  0  0  0  0  0
   29.4900   37.0000   24.7030 O   0  0  0  0  0  0  0  0  0  0  0  0
   35.6940   40.6290   26.2170 C   0  0  0  0  0  0  0  0  0  0  0  0
   36.3010   40.3820   25.1080 O   0  0  0  0  0  0  0  0  0  0  0  0
   32.7130   40.6700   24.4530 N   0  0  0  0  0  0  0  0  0  0  0  0
   31.8530   38.7490   23.3530 O   0  0  0  0  0  0  0  0  0  0  0  0
   38.1990   38.1870   29.0850 C   0  0  0  0  0  0  0  0  0  0  0  0
   38.5530   39.2050   28.4560 C   0  0  0  0  0  0  0  0  0  0  0  0
   37.1940   37.5970   28.7490 O   0  0  0  0  0  0  0  0  0  0  0  0
   36.3110   39.9640   27.2290 C   0  0  0  0  0  0  0  0  0  0  0  0
   32.4060   42.5290   25.3710 O   0  0  0  0  0  0  0  0  0  0  0  0
   31.0200   38.2910   25.9790 C   0  0  0  0  0  0  0  0  0  0  0  0
   31.6120   39.9010   24.1990 C   0  0  0  0  0  0  0  0  0  0  0  0
   33.1840   41.3740   25.5310 C   0  0  0  0  0  0  0  0  0  0  0  0
   37.5890   40.2260   27.6840 N   0  0  0  0  0  0  0  0  0  0  0  0
   29.8720   38.4650   24.9790 C   0  0  0  0  0  0  0  0  0  0  0  0
   30.8650   39.5800   25.5130 C   0  0  0  0  0  0  0  0  0  0  0  0
  3 17  1  0
  4  5  1  0
  4  2  1  0
  4 11  1  0
  6 15  1  0
  9  8  1  0
 10  8  2  0
 11 16  1  0
 12 15  2  0
 14  7  1  0
 14  6  1  0
 15  2  1  0
 16  9  1  0
 17  1  1  0
 17 18  1  0
 17 13  1  0
 18 14  1  0
 18 13  1  0
M  END
$$$$

     RDKit          3D

 10  9  0  0  0  0  0  0  0  0999 V2000
   35.6230   41.4180   25.3930 C   0  0  0  0  0  0  0  0  0  0  0  0
   38.0470   39.9310   25.2990 O   0  0  0  0  0  0  0  0  0  0  0  0
   33.7410   42.3090   24.0480 C   0  0  0  0  0  0  0  0  0  0  0  0
   33.3350   40.7950   26.0330 C   0  0  0  0  0  0  0  0  0  0  0  0
   37.8400   42.6730   25.8580 C   0  0  0  0  0  0  0  0  0  0  0  0
   35.8910   38.7790   25.9190 O   0  0  0  0  0  0  0  0  0  0  0  0
   34.2850   41.4430   25.2100 C   0  0  0  0  0  0  0  0  0  0  0  0
   37.0530   40.3790   27.6460 O   0  0  0  0  0  0  0  0  0  0  0  0
   36.7210   40.1140   25.9820 P   0  0  0  0  0  0  0  0  0  0  0  0
   36.6770   42.2390   25.1190 N   0  0  0  0  0  0  0  0  0  0  0  0
  1 10  1  0
  1  9  1  0
  2  9  2  0
  3  7  1  0
  6  9  1  0
  7  1  1  0
  7  4  1  0
  9  8  1  0
 10  5  1  0
M  END
$$$$

     RDKit          3D

  6  5  0  0  0  0  0  0  0  0999 V2000
   35.9690   42.5760   25.4720 O   0  0  0  0  0  0  0  0  0  0  0  0
   36.1770   40.2340   25.7690 C   0  0  0  0  0  0  0  0  0  0  0  0
   35.3610   41.5700   25.8360 C   0  0  0  0  0  0  0  0  0  0  0  0
   37.5270   40.3820   25.4450 O   0  0  0  0  0  0  0  0  0  0  0  0
   34.0800   41.5370   25.8680 O   0  0  0  0  0  0  0  0  0  0  0  0
   35.5540   39.1740   25.4140 O   0  0  0  0  0  0  0  0  0  0  0  0
  1  3  2  0
  2  3  1  0
  3  5  1  0
  4  2  1  0
  6  2  2  0
M  END
$$$$

     RDKit          3D

 11 10  0  0  0  0  0  0  0  0999 V2000
   38.1090   41.7930   24.2930 C   0  0  0  0  0  0  0  0  0  0  0  0
   34.5960   43.0660   24.7820 O   0  0  0  0  0  0  0  0  0  0  0  0
   37.0280   39.7060   26.2830 C   0  0  0  0  0  0  0  0  0  0  0  0
   35.4180   40.9100   26.4370 C   0  0  0  0  0  0  0  0  0  0  0  0
   36.1120   38.8740   25.6300 O   0  0  0  0  0  0  0  0  0  0  0  0
   36.5200   43.6320   25.3200 O   0  0  0  0  0  0  0  0  0  0  0  0
   35.9340   41.4340   25.1940 C   0  0  0  0  0  0  0  0  0  0  0  0
   37.4090   41.0100   25.4990 C   0  0  0  0  0  0  0  0  0  0  0  0
   36.8080   39.8310   27.6330 O   0  0  0  0  0  0  0  0  0  0  0  0
   33.6810   40.9350   25.9200 S   0  0  0  0  0  0  0  0  0  0  0  0
   35.7930   42.8850   25.2640 C   0  0  0  0  0  0  0  0  0  0  0  0
  2 11  2  0
  3  9  1  0
  5  3  2  0
  7 11  1  0
  7  8  1  0
  7  4  1  0
  8  1  1  0
  8  3  1  0
 10  4  1  0
 11  6  1  0
M  END
$$$$

     RDKit          3D

 14 13  0  0  0  0  0  0  0  0999 V2000
   38.6050   41.0560   24.5470 C   0  0  0  0  0  0  0  0  0  0  0  0
   34.6340   43.3840   25.2320 O   0  0  0  0  0  0  0  0  0  0  0  0
   37.5290   39.5180   28.5260 N   0  0  0  0  0  0  0  0  0  0  0  0
   35.4470   42.0850   23.3210 C   0  0  0  0  0  0  0  0  0  0  0  0
   36.1620   41.1610   24.2830 C   0  0  0  0  0  0  0  0  0  0  0  0
   36.2830   44.5000   23.7310 C   0  0  0  0  0  0  0  0  0  0  0  0
   36.9990   40.7590   26.7150 C   0  0  0  0  0  0  0  0  0  0  0  0
   36.8370   39.5460   27.4140 C   0  0  0  0  0  0  0  0  0  0  0  0
   36.2430   38.4350   27.0650 O   0  0  0  0  0  0  0  0  0  0  0  0
   37.2820   40.7030   25.2410 C   0  0  0  0  0  0  0  0  0  0  0  0
   34.9020   40.7230   25.0670 C   0  0  0  0  0  0  0  0  0  0  0  0
   35.4390   43.3780   24.1190 C   0  0  0  0  0  0  0  0  0  0  0  0
   34.9460   40.9150   27.2420 O   0  0  0  0  0  0  0  0  0  0  0  0
   35.0720   40.4200   26.3230 C   0  0  0  0  0  0  0  0  0  0  0  0
  4 12  1  0
  5  4  1  0
  5 11  1  0
  5 10  1  0
  7  8  1  0
  8  3  1  0
  9  8  2  0
 10  1  1  0
 10  7  1  0
 11 14  1  0
 12  6  1  0
 12  2  1  0
 14 13  2  0
M  END
$$$$

     RDKit          3D

 11 11  0  0  0  0  0  0  0  0999 V2000
   34.3490   40.4730   26.3950 O   0  0  0  0  0  0  0  0  0  0  0  0
   32.6330   39.9150   24.6830 C   0  0  0  0  0  0  0  0  0  0  0  0
   38.4920   38.8020   29.3320 C   0  0  0  0  0  0  0  0  0  0  0  0
   37.0800   38.3570   29.3170 C   0  0  0  0  0  0  0  0  0  0  0  0
   39.2330   39.3430   28.2360 N   0  0  0  0  0  0  0  0  0  0  0  0
   35.9510   40.4350   26.5000 C   0  0  0  0  0  0  0  0  0  0  0  0
   33.6760   42.3110   24.8280 C   0  0  0  0  0  0  0  0  0  0  0  0
   33.5580   40.8540   25.2490 C   0  0  0  0  0  0  0  0  0  0  0  0
   36.9170   39.6820   27.4200 C   0  0  0  0  0  0  0  0  0  0  0  0
   36.3570   39.4180   28.8350 N   0  0  0  0  0  0  0  0  0  0  0  0
   36.0200   38.9380   26.4540 C   0  0  0  0  0  0  0  0  0  0  0  0
  2  8  1  0
  4  3  1  0
  5  3  1  0
  6  1  1  0
  6  9  1  0
  7  8  1  0
  8  1  1  0
  9 10  1  0
 10  4  1  0
 11  6  1  0
 11  9  1  0
M  END
$$$$

     RDKit          3D

  8  7  0  0  0  0  0  0  0  0999 V2000
   36.6460   42.1500   23.9070 S   0  0  0  0  0  0  0  0  0  0  0  0
   37.5320   38.7310   27.4310 N   0  0  0  0  0  0  0  0  0  0  0  0
   38.4170   40.8340   28.8040 O   0  0  0  0  0  0  0  0  0  0  0  0
   36.6100   42.1000   25.7480 C   0  0  0  0  0  0  0  0  0  0  0  0
   38.7510   42.4020   26.7640 O   0  0  0  0  0  0  0  0  0  0  0  0
   37.4680   40.4110   27.7700 P   0  0  0  0  0  0  0  0  0  0  0  0
   37.8330   41.4140   26.3400 C   0  0  0  0  0  0  0  0  0  0  0  0
   36.0250   40.6790   28.0210 O   0  0  0  0  0  0  0  0  0  0  0  0
  1  4  1  0
  4  7  1  0
  6  2  1  0
  6  8  2  0
  6  3  1  0
  7  5  1  0
  7  6  1  0
M  END
$$$$

     RDKit          3D

 21 23  0  0  0  0  0  0  0  0999 V2000
   36.0690   38.9750   25.0420 O   0  0  0  0  0  0  0  0  0  0  0  0
   34.0270   40.3540   24.7850 C   0  0  0  0  0  0  0  0  0  0  0  0
   39.3970   40.4850   29.1290 N   0  0  0  0  0  0  0  0  0  0  0  0
   37.6480   40.0500   27.9230 C   0  0  0  0  0  0  0  0  0  0  0  0
   39.5710   39.1660   28.6540 C   0  0  0  0  0  0  0  0  0  0  0  0
   28.9730   36.5110   25.5750 Br  0  0  0  0  0  0  0  0  0  0  0  0
   30.5180   40.4690   26.0370 C   0  0  0  0  0  0  0  0  0  0  0  0
   38.4600   38.8410   27.9270 N   0  0  0  0  0  0  0  0  0  0  0  0
   35.3520   39.9270   25.2640 C   0  0  0  0  0  0  0  0  0  0  0  0
   36.0210   43.5390   25.6790 O   0  0  0  0  0  0  0  0  0  0  0  0
   34.1230   41.8360   24.9800 N   0  0  0  0  0  0  0  0  0  0  0  0
   35.4340   42.1520   25.7020 C   0  0  0  0  0  0  0  0  0  0  0  0
   30.1260   38.1220   25.1230 C   0  0  0  0  0  0  0  0  0  0  0  0
   35.8350   41.0130   26.3510 C   0  0  0  0  0  0  0  0  0  0  0  0
   36.3590   40.2520   27.2670 N   0  0  0  0  0  0  0  0  0  0  0  0
   32.0140   39.2070   24.0180 C   0  0  0  0  0  0  0  0  0  0  0  0
   38.2290   41.0640   28.6080 C   0  0  0  0  0  0  0  0  0  0  0  0
   31.6490   41.1350   25.4470 C   0  0  0  0  0  0  0  0  0  0  0  0
   29.9970   39.2320   25.9080 C   0  0  0  0  0  0  0  0  0  0  0  0
   31.0980   38.2870   24.0920 C   0  0  0  0  0  0  0  0  0  0  0  0
   32.4740   40.1000   24.7470 C   0  0  0  0  0  0  0  0  0  0  0  0
  1  9  2  0
  2 11  1  0
  2  9  1  0
  4  8  2  0
  4 17  1  0
  5  3  1  0
  8  5  1  0
  9 14  1  0
 10 12  2  0
 11 12  1  0
 12 14  1  0
 13  6  1  0
 13 19  1  0
 14 15  1  0
 15  4  1  0
 16 20  2  0
 17  3  2  0
 18  7  1  0
 19  7  2  0
 20 13  1  0
 21 16  1  0
 21  2  1  0
 21 18  1  0
M  END
$$$$

     RDKit          3D

 19 19  0  0  0  0  0  0  0  0999 V2000
   36.1520   40.0120   27.0500 N   0  0  0  0  0  0  0  0  0  0  0  0
   38.0070   43.0260   24.2500 O   0  0  0  0  0  0  0  0  0  0  0  0
   33.3470   42.7030   24.1390 C   0  0  0  0  0  0  0  0  0  0  0  0
   36.8770   39.6980   28.2580 C   0  0  0  0  0  0  0  0  0  0  0  0
   38.4880   43.2130   25.5340 C   0  0  0  0  0  0  0  0  0  0  0  0
   34.2670   38.3600   22.2730 C   0  0  0  0  0  0  0  0  0  0  0  0
   33.8630   39.5950   23.0480 C   0  0  0  0  0  0  0  0  0  0  0  0
   33.4480   41.2810   26.0730 C   0  0  0  0  0  0  0  0  0  0  0  0
   36.3370   38.7640   25.1710 O   0  0  0  0  0  0  0  0  0  0  0  0
   34.1770   41.6870   24.7730 C   0  0  0  0  0  0  0  0  0  0  0  0
   36.4710   39.3280   29.2420 O   0  0  0  0  0  0  0  0  0  0  0  0
   32.4320   39.7070   23.2900 C   0  0  0  0  0  0  0  0  0  0  0  0
   35.6540   41.3910   24.3850 C   0  0  0  0  0  0  0  0  0  0  0  0
   36.6040   39.8150   25.7500 C   0  0  0  0  0  0  0  0  0  0  0  0
   38.0990   41.3250   27.4370 C   0  0  0  0  0  0  0  0  0  0  0  0
   34.6690   40.5140   23.7590 N   0  0  0  0  0  0  0  0  0  0  0  0
   37.5360   42.1400   26.2410 C   0  0  0  0  0  0  0  0  0  0  0  0
   37.0650   41.1070   25.0280 C   0  0  0  0  0  0  0  0  0  0  0  0
   39.4120   41.1290   27.1020 O   0  0  0  0  0  0  0  0  0  0  0  0
  1  4  1  0
  2  5  1  0
  3 10  1  0
  4 11  2  0
  5 17  1  0
  6  7  1  0
  7 12  1  0
  7 16  1  0
  9 14  2  0
 10  8  1  0
 13 10  1  0
 13 18  1  0
 14  1  1  0
 16 13  1  0
 16 10  1  0
 17 15  1  0
 18 14  1  0
 18 17  1  0
 19 15  1  0
M  END
$$$$

     RDKit          3D

 11 11  0  0  0  0  0  0  0  0999 V2000
   33.1990   42.2370   24.7180 C   0  0  0  0  0  0  0  0  0  0  0  0
   38.6130   40.2330   26.0830 N   0  0  0  0  0  0  0  0  0  0  0  0
   37.1870   40.0140   26.6910 S   0  0  0  0  0  0  0  0  0  0  0  0
   35.5840   42.9110   24.9210 C   0  0  0  0  0  0  0  0  0  0  0  0
   37.0900   38.5060   26.6440 O   0  0  0  0  0  0  0  0  0  0  0  0
   33.4930   40.8800   25.0140 C   0  0  0  0  0  0  0  0  0  0  0  0
   37.2500   40.3000   28.1620 O   0  0  0  0  0  0  0  0  0  0  0  0
   35.8880   40.8450   25.8820 C   0  0  0  0  0  0  0  0  0  0  0  0
   36.4280   42.0100   25.3340 C   0  0  0  0  0  0  0  0  0  0  0  0
   34.2630   43.1780   24.6440 C   0  0  0  0  0  0  0  0  0  0  0  0
   34.6670   40.3830   25.6220 C   0  0  0  0  0  0  0  0  0  0  0  0
  1  6  1  0
  2  3  1  0
  3  7  2  0
  4  9  2  0
  5  3  2  0
  6 11  1  0
  8  3  1  0
  9  8  1  0
 10  1  2  0
 10  4  1  0
 11  8  2  0
M  END
$$$$

     RDKit          3D

 14 14  0  0  0  0  0  0  0  0999 V2000
   37.0860   39.5390   27.5530 C   0  0  0  0  0  0  0  0  0  0  0  0
   35.2570   41.9810   25.6350 C   0  0  0  0  0  0  0  0  0  0  0  0
   36.2750   41.4790   26.4220 C   0  0  0  0  0  0  0  0  0  0  0  0
   38.4240   42.1140   26.9180 C   0  0  0  0  0  0  0  0  0  0  0  0
   37.5240   41.7030   25.8000 C   0  0  0  0  0  0  0  0  0  0  0  0
   36.5230   38.2910   27.8080 O   0  0  0  0  0  0  0  0  0  0  0  0
   31.9260   39.0670   25.1190 C   0  0  0  0  0  0  0  0  0  0  0  0
   32.2170   42.5430   24.8140 C   0  0  0  0  0  0  0  0  0  0  0  0
   31.7420   40.4450   25.7960 C   0  0  0  0  0  0  0  0  0  0  0  0
   36.1200   40.1800   26.6460 C   0  0  0  0  0  0  0  0  0  0  0  0
   38.0110   42.6210   28.2010 O   0  0  0  0  0  0  0  0  0  0  0  0
   34.0390   41.0900   25.7970 C   0  0  0  0  0  0  0  0  0  0  0  0
   34.4570   39.5530   26.4520 S   0  0  0  0  0  0  0  0  0  0  0  0
   32.7630   41.3540   25.4750 C   0  0  0  0  0  0  0  0  0  0  0  0
  1  6  1  0
  2 12  1  0
  2  3  1  0
  3  5  1  0
  3 10  1  0
  4 11  1  0
  5  4  1  0
  7  9  1  0
  8 14  1  0
 10  1  1  0
 12 13  1  0
 13 10  1  0
 14  9  1  0
 14 12  2  3
M  END
$$$$

     RDKit          3D

 11 11  0  0  0  0  0  0  0  0999 V2000
   36.4240   39.1450   25.8840 O   0  0  0  0  0  0  0  0  0  0  0  0
   33.2040   41.7150   24.6290 C   0  0  0  0  0  0  0  0  0  0  0  0
   34.6420   41.9390   24.7420 C   0  0  0  0  0  0  0  0  0  0  0  0
   34.0280   40.1880   26.5380 N   0  0  0  0  0  0  0  0  0  0  0  0
   37.1160   42.6870   26.7780 C   0  0  0  0  0  0  0  0  0  0  0  0
   34.9950   41.2320   26.1380 C   0  0  0  0  0  0  0  0  0  0  0  0
   37.2880   41.3540   26.1700 N   0  0  0  0  0  0  0  0  0  0  0  0
   38.5070   40.8560   25.6120 C   0  0  0  0  0  0  0  0  0  0  0  0
   36.3140   40.5680   25.9130 C   0  0  0  0  0  0  0  0  0  0  0  0
   39.7210   42.0990   26.2490 S   0  0  0  0  0  0  0  0  0  0  0  0
   38.5240   43.4170   26.3790 C   0  0  0  0  0  0  0  0  0  0  0  0
  1  9  2  0
  2  3  1  0
  3  6  1  0
  6  4  1  0
  7  5  1  0
  8  7  1  0
  8 10  1  0
  9  6  1  0
  9  7  1  0
 10 11  1  0
 11  5  1  0
M  END
$$$$
