
     RDKit          3D

 16 15  0  0  0  0  0  0  0  0999 V2000
   40.9640   38.6700   30.7570 O   0  0  0  0  0  0  0  0  0  0  0  0
   39.6790   36.6850   25.4850 S   0  0  0  0  0  0  0  0  0  0  0  0
   42.2560   37.3290   32.7730 O   0  0  0  0  0  0  0  0  0  0  0  0
   41.4160   37.8250   29.9180 C   0  0  0  0  0  0  0  0  0  0  0  0
   40.6670   37.5000   28.6480 C   0  0  0  0  0  0  0  0  0  0  0  0
   40.9810   41.0220   28.8340 O   0  0  0  0  0  0  0  0  0  0  0  0
   41.1860   36.3610   27.9490 O   0  0  0  0  0  0  0  0  0  0  0  0
   43.3560   37.3160   31.7230 P   0  0  0  0  0  0  0  0  0  0  0  0
   42.7350   40.1120   27.2180 O   0  0  0  0  0  0  0  0  0  0  0  0
   40.8500   38.0550   25.3980 C   0  0  0  0  0  0  0  0  0  0  0  0
   41.9110   39.8940   28.4130 S   0  0  0  0  0  0  0  0  0  0  0  0
   40.5830   38.8130   27.9310 C   0  0  0  0  0  0  0  0  0  0  0  0
   42.5360   37.0220   30.2870 O   0  0  0  0  0  0  0  0  0  0  0  0
   40.5630   39.1500   26.4000 C   0  0  0  0  0  0  0  0  0  0  0  0
   44.3110   38.5790   31.6220 O   0  0  0  0  0  0  0  0  0  0  0  0
   44.2490   36.0500   31.9340 O   0  0  0  0  0  0  0  0  0  0  0  0
  4 13  1  0
  4  1  2  0
  5  7  1  0
  5  4  1  0
  8 16  1  0
  8  3  1  0
  9 11  1  0
 10  2  1  0
 10 14  1  0
 11  6  1  0
 12 14  1  0
 12 11  1  0
 12  5  1  0
 13  8  1  0
 15  8  2  0
M  END
$$$$

     RDKit          3D

 16 16  0  0  0  0  0  0  0  0999 V2000
   41.1330   37.3600   28.9060 C   0  0  0  0  0  0  0  0  0  0  0  0
   41.2580   38.2580   30.1000 C   0  0  0  0  0  0  0  0  0  0  0  0
   44.3220   40.5130   29.3410 C   0  0  0  0  0  0  0  0  0  0  0  0
   43.7150   37.7810   29.5560 O   0  0  0  0  0  0  0  0  0  0  0  0
   39.5400   40.4120   27.9930 C   0  0  0  0  0  0  0  0  0  0  0  0
   42.0310   40.1540   28.4020 O   0  0  0  0  0  0  0  0  0  0  0  0
   45.2760   38.2180   31.5520 O   0  0  0  0  0  0  0  0  0  0  0  0
   42.0220   39.5790   29.6840 C   0  0  0  0  0  0  0  0  0  0  0  0
   41.8380   37.3950   31.2310 C   0  0  0  0  0  0  0  0  0  0  0  0
   43.6190   39.2650   29.8350 C   0  0  0  0  0  0  0  0  0  0  0  0
   41.0500   36.6630   28.0360 N   0  0  0  0  0  0  0  0  0  0  0  0
   41.0110   40.1340   27.3800 C   0  0  0  0  0  0  0  0  0  0  0  0
   43.3570   37.0100   30.8350 C   0  0  0  0  0  0  0  0  0  0  0  0
   44.4650   36.8190   32.9560 O   0  0  0  0  0  0  0  0  0  0  0  0
   41.0820   36.1780   31.7490 C   0  0  0  0  0  0  0  0  0  0  0  0
   44.2960   37.4260   31.8340 C   0  0  0  0  0  0  0  0  0  0  0  0
  2  1  1  0
  2  9  1  0
  4 10  1  0
  4 13  1  0
  7 16  2  0
  8  6  1  0
  8 10  1  0
  8  2  1  0
  9 15  1  0
 10  3  1  0
 11  1  3  0
 12  5  1  0
 12  6  1  0
 13  9  1  0
 13 16  1  0
 16 14  1  0
M  END
$$$$

     RDKit          3D

  9  9  0  0  0  0  0  0  0  0999 V2000
   41.1240   36.8870   27.6550 O   0  0  0  0  0  0  0  0  0  0  0  0
   44.0330   38.5950   29.2910 C   0  0  0  0  0  0  0  0  0  0  0  0
   43.5970   37.3220   29.9310 C   0  0  0  0  0  0  0  0  0  0  0  0
   43.5410   40.9850   27.4010 I   0  0  0  0  0  0  0  0  0  0  0  0
   39.8980   38.0060   29.1120 O   0  0  0  0  0  0  0  0  0  0  0  0
   43.2110   39.5680   28.8840 C   0  0  0  0  0  0  0  0  0  0  0  0
   42.2740   36.9270   29.7370 N   0  0  0  0  0  0  0  0  0  0  0  0
   41.3170   37.8360   28.8150 S   0  0  0  0  0  0  0  0  0  0  0  0
   41.7700   39.4930   28.9930 N   0  0  0  0  0  0  0  0  0  0  0  0
  1  8  2  0
  2  3  1  0
  6  4  1  0
  6  9  1  0
  6  2  1  0
  7  3  2  0
  8  9  1  0
  8  5  2  0
  8  7  1  0
M  END
$$$$

     RDKit          3D

 14 14  0  0  0  0  0  0  0  0999 V2000
   41.7950   42.5930   27.1550 O   0  0  0  0  0  0  0  0  0  0  0  0
   44.9340   39.1000   28.1640 O   0  0  0  0  0  0  0  0  0  0  0  0
   41.5450   37.2890   30.8160 N   0  0  0  0  0  0  0  0  0  0  0  0
   42.6990   39.1350   29.5620 C   0  0  0  0  0  0  0  0  0  0  0  0
   40.8830   41.9040   27.6010 C   0  0  0  0  0  0  0  0  0  0  0  0
   41.4200   38.1770   29.6330 C   0  0  0  0  0  0  0  0  0  0  0  0
   40.9990   35.2720   32.1840 C   0  0  0  0  0  0  0  0  0  0  0  0
   42.5160   40.5130   28.8490 C   0  0  0  0  0  0  0  0  0  0  0  0
   43.1780   38.7050   27.0490 O   0  0  0  0  0  0  0  0  0  0  0  0
   40.8630   36.1750   30.9440 C   0  0  0  0  0  0  0  0  0  0  0  0
   41.1520   40.6340   28.2780 O   0  0  0  0  0  0  0  0  0  0  0  0
   39.5870   41.9470   27.2250 N   0  0  0  0  0  0  0  0  0  0  0  0
   43.5230   39.3610   28.0540 S   0  0  0  0  0  0  0  0  0  0  0  0
   40.0990   35.8310   30.0590 O   0  0  0  0  0  0  0  0  0  0  0  0
  1  5  2  0
  3 10  1  0
  4  6  1  0
  5 11  1  0
  6  3  1  0
  8 11  1  0
  8  4  1  0
  9 13  2  0
 10  7  1  0
 12  5  1  0
 13  2  2  0
 13  8  1  0
 13  4  1  0
 14 10  2  0
M  END
$$$$

     RDKit          3D

 16 15  0  0  0  0  0  0  0  0999 V2000
   43.4950   36.6390   29.8350 O   0  0  0  0  0  0  0  0  0  0  0  0
   45.0630   38.4390   29.5770 N   0  0  0  0  0  0  0  0  0  0  0  0
   40.7630   36.2230   31.4870 N   0  0  0  0  0  0  0  0  0  0  0  0
   44.3050   39.3750   28.4920 C   0  0  0  0  0  0  0  0  0  0  0  0
   41.8660   40.0820   29.5980 C   0  0  0  0  0  0  0  0  0  0  0  0
   46.1640   39.1000   30.3400 C   0  0  0  0  0  0  0  0  0  0  0  0
   41.3080   37.3540   30.7850 C   0  0  0  0  0  0  0  0  0  0  0  0
   43.1310   38.7250   27.7820 N   0  0  0  0  0  0  0  0  0  0  0  0
   41.0180   37.4320   29.3460 C   0  0  0  0  0  0  0  0  0  0  0  0
   41.8870   38.6760   28.9200 C   0  0  0  0  0  0  0  0  0  0  0  0
   40.4380   39.7910   27.7580 O   0  0  0  0  0  0  0  0  0  0  0  0
   47.1160   38.0280   30.3420 O   0  0  0  0  0  0  0  0  0  0  0  0
   40.7210   36.8110   28.0640 O   0  0  0  0  0  0  0  0  0  0  0  0
   41.4200   40.9720   28.4390 C   0  0  0  0  0  0  0  0  0  0  0  0
   44.3640   40.7040   28.5650 O   0  0  0  0  0  0  0  0  0  0  0  0
   44.1250   37.5490   30.1970 C   0  0  0  0  0  0  0  0  0  0  0  0
  1 16  2  0
  2 16  1  0
  2  6  1  0
  4 15  2  0
  4  2  1  0
  6 12  1  0
  7  3  1  0
  8  4  1  0
  8 10  1  0
  9 13  1  0
  9  7  1  0
 10  9  1  0
 10  5  1  0
 11 14  1  0
 14  5  1  0
M  END
$$$$

     RDKit          3D

 15 15  0  0  0  0  0  0  0  0999 V2000
   40.1850   36.4400   31.1100 C   0  0  0  0  0  0  0  0  0  0  0  0
   41.3280   36.6670   29.9960 C   0  0  0  0  0  0  0  0  0  0  0  0
   43.1340   39.2120   30.5530 O   0  0  0  0  0  0  0  0  0  0  0  0
   44.1320   36.2910   31.4930 N   0  0  0  0  0  0  0  0  0  0  0  0
   46.2410   39.7830   29.6470 C   0  0  0  0  0  0  0  0  0  0  0  0
   47.3190   40.3650   30.4810 C   0  0  0  0  0  0  0  0  0  0  0  0
   43.6210   37.0580   29.6350 C   0  0  0  0  0  0  0  0  0  0  0  0
   42.2390   37.1920   32.0410 N   0  0  0  0  0  0  0  0  0  0  0  0
   41.1240   35.9620   32.1340 C   0  0  0  0  0  0  0  0  0  0  0  0
   42.7660   36.5920   30.7150 C   0  0  0  0  0  0  0  0  0  0  0  0
   46.2630   38.1490   29.6060 C   0  0  0  0  0  0  0  0  0  0  0  0
   43.8810   40.6760   30.1360 C   0  0  0  0  0  0  0  0  0  0  0  0
   41.4420   36.8520   28.5200 O   0  0  0  0  0  0  0  0  0  0  0  0
   43.4750   38.6140   29.3350 C   0  0  0  0  0  0  0  0  0  0  0  0
   45.2670   40.5560   29.4610 C   0  0  0  0  0  0  0  0  0  0  0  0
  1  9  1  0
  2 13  1  0
  2 10  1  0
  2  1  1  0
  5  6  1  0
  7 10  1  0
  8  9  1  0
 10  4  1  0
 10  8  1  0
 11  5  1  0
 12  3  1  0
 14  7  1  0
 14  3  1  0
 15  5  1  0
 15 12  1  0
M  END
$$$$

     RDKit          3D

 18 19  0  0  0  0  0  0  0  0999 V2000
   41.6800   36.8130   30.7430 N   0  0  0  0  0  0  0  0  0  0  0  0
   45.9250   37.5600   30.8900 C   0  0  0  0  0  0  0  0  0  0  0  0
   40.8270   39.7930   28.4830 C   0  0  0  0  0  0  0  0  0  0  0  0
   45.1940   37.1330   32.0380 C   0  0  0  0  0  0  0  0  0  0  0  0
   43.5470   39.7900   27.5630 S   0  0  0  0  0  0  0  0  0  0  0  0
   41.8290   42.1470   27.7390 C   0  0  0  0  0  0  0  0  0  0  0  0
   41.1590   37.0900   29.3170 C   0  0  0  0  0  0  0  0  0  0  0  0
   39.8150   39.6170   27.8310 O   0  0  0  0  0  0  0  0  0  0  0  0
   43.8010   36.9640   32.0040 C   0  0  0  0  0  0  0  0  0  0  0  0
   43.1260   37.2130   30.8360 C   0  0  0  0  0  0  0  0  0  0  0  0
   41.5810   38.4780   28.8710 C   0  0  0  0  0  0  0  0  0  0  0  0
   43.8580   37.8370   29.7070 C   0  0  0  0  0  0  0  0  0  0  0  0
   41.1320   35.9350   31.8610 C   0  0  0  0  0  0  0  0  0  0  0  0
   43.0910   38.3270   28.5020 C   0  0  0  0  0  0  0  0  0  0  0  0
   41.3390   41.2120   28.7450 N   0  0  0  0  0  0  0  0  0  0  0  0
   41.6770   42.0810   26.5480 O   0  0  0  0  0  0  0  0  0  0  0  0
   45.2290   37.9020   29.7630 C   0  0  0  0  0  0  0  0  0  0  0  0
   40.9100   36.2530   28.3780 O   0  0  0  0  0  0  0  0  0  0  0  0
  1 10  1  0
  1 13  1  0
  2  4  1  0
  3 15  1  0
  6 15  1  0
  7  1  1  0
  8  3  2  0
  9  4  2  0
 10  9  1  0
 11  3  1  0
 11  7  1  0
 12 17  1  0
 12 10  2  0
 14  5  1  0
 14 11  1  0
 14 12  1  0
 16  6  2  0
 17  2  2  0
 18  7  2  0
M  END
$$$$

     RDKit          3D

 12 11  0  0  0  0  0  0  0  0999 V2000
   41.1900   38.2880   29.4820 C   0  0  0  0  0  0  0  0  0  0  0  0
   44.4060   37.8450   30.8600 C   0  0  0  0  0  0  0  0  0  0  0  0
   45.3500   37.9230   31.6700 N   0  0  0  0  0  0  0  0  0  0  0  0
   40.9430   36.5780   31.1120 N   0  0  0  0  0  0  0  0  0  0  0  0
   41.0470   37.2860   27.3040 O   0  0  0  0  0  0  0  0  0  0  0  0
   43.1850   38.6610   31.0590 C   0  0  0  0  0  0  0  0  0  0  0  0
   40.8830   38.3600   28.0090 C   0  0  0  0  0  0  0  0  0  0  0  0
   40.4690   39.4860   27.6290 O   0  0  0  0  0  0  0  0  0  0  0  0
   42.5190   38.7070   29.7640 N   0  0  0  0  0  0  0  0  0  0  0  0
   44.4280   36.9350   29.9440 O   0  0  0  0  0  0  0  0  0  0  0  0
   41.1180   36.8050   29.7140 C   0  0  0  0  0  0  0  0  0  0  0  0
   42.5730   37.8080   31.9480 O   0  0  0  0  0  0  0  0  0  0  0  0
  1 11  1  0
  1  9  1  0
  2  6  1  0
  2  3  1  0
  5  7  2  0
  6 12  1  0
  7  1  1  0
  8  7  1  0
  9  6  1  0
 10  2  2  0
 11  4  1  0
M  END
$$$$

     RDKit          3D

 17 17  0  0  0  0  0  0  0  0999 V2000
   40.1720   36.1580   29.8930 O   0  0  0  0  0  0  0  0  0  0  0  0
   40.8790   42.7810   27.9840 C   0  0  0  0  0  0  0  0  0  0  0  0
   39.8960   41.7870   25.0190 C   0  0  0  0  0  0  0  0  0  0  0  0
   43.7540   37.4540   31.5510 N   0  0  0  0  0  0  0  0  0  0  0  0
   40.8520   37.2480   29.3220 C   0  0  0  0  0  0  0  0  0  0  0  0
   39.8150   41.1850   26.4200 C   0  0  0  0  0  0  0  0  0  0  0  0
   42.4430   37.2410   31.1480 C   0  0  0  0  0  0  0  0  0  0  0  0
   42.3810   40.5850   27.2960 S   0  0  0  0  0  0  0  0  0  0  0  0
   42.1340   38.9690   27.7000 C   0  0  0  0  0  0  0  0  0  0  0  0
   40.4440   35.8120   31.2710 C   0  0  0  0  0  0  0  0  0  0  0  0
   42.9480   38.4980   28.8900 C   0  0  0  0  0  0  0  0  0  0  0  0
   44.1730   36.6900   32.6950 N   0  0  0  0  0  0  0  0  0  0  0  0
   42.0370   37.6960   29.8850 C   0  0  0  0  0  0  0  0  0  0  0  0
   41.5410   36.5100   31.9220 N   0  0  0  0  0  0  0  0  0  0  0  0
   43.7930   37.5210   28.3590 O   0  0  0  0  0  0  0  0  0  0  0  0
   41.2450   38.1730   27.0910 O   0  0  0  0  0  0  0  0  0  0  0  0
   41.0030   41.6340   27.2240 C   0  0  0  0  0  0  0  0  0  0  0  0
  1 10  1  0
  3  6  1  0
  4 12  1  0
  5 13  1  0
  5  1  1  0
  6 17  1  0
  7  4  1  0
  7 14  2  0
  8  9  1  0
  9 11  1  0
 10 14  1  0
 11 15  1  0
 13 11  1  0
 13  7  1  0
 16  9  2  0
 17  8  1  0
 17  2  1  0
M  END
$$$$

     RDKit          3D

 16 16  0  0  0  0  0  0  0  0999 V2000
   46.8650   38.5150   31.3170 S   0  0  0  0  0  0  0  0  0  0  0  0
   45.4760   37.3710   31.3160 C   0  0  0  0  0  0  0  0  0  0  0  0
   39.4620   40.2210   27.3990 C   0  0  0  0  0  0  0  0  0  0  0  0
   41.6710   38.7010   26.4210 O   0  0  0  0  0  0  0  0  0  0  0  0
   39.5430   39.9580   26.0310 O   0  0  0  0  0  0  0  0  0  0  0  0
   42.7460   36.7620   31.7050 C   0  0  0  0  0  0  0  0  0  0  0  0
   41.3390   42.2750   27.2610 S   0  0  0  0  0  0  0  0  0  0  0  0
   40.4020   39.4930   28.1430 O   0  0  0  0  0  0  0  0  0  0  0  0
   44.5990   37.7110   30.1080 C   0  0  0  0  0  0  0  0  0  0  0  0
   42.1330   37.1050   29.2340 C   0  0  0  0  0  0  0  0  0  0  0  0
   42.3900   38.1390   28.3580 N   0  0  0  0  0  0  0  0  0  0  0  0
   39.7520   41.6590   27.7690 C   0  0  0  0  0  0  0  0  0  0  0  0
   41.2680   36.6980   31.4810 N   0  0  0  0  0  0  0  0  0  0  0  0
   41.4560   38.6910   27.5760 C   0  0  0  0  0  0  0  0  0  0  0  0
   40.8330   37.2040   30.0820 C   0  0  0  0  0  0  0  0  0  0  0  0
   43.2170   37.1370   30.3020 N   0  0  0  0  0  0  0  0  0  0  0  0
  2  1  1  0
  3  5  1  0
  3 12  1  0
  3  8  1  0
  4 14  2  0
  7 12  1  0
  9 16  1  0
  9  2  1  0
 10 11  1  0
 10 15  1  0
 10 16  1  0
 13  6  1  0
 14  8  1  0
 14 11  1  0
 15 13  1  0
 16  6  1  0
M  END
$$$$

     RDKit          3D

 13 13  0  0  0  0  0  0  0  0999 V2000
   41.9270   39.0430   32.1600 O   0  0  0  0  0  0  0  0  0  0  0  0
   46.2850   37.7680   29.5890 C   0  0  0  0  0  0  0  0  0  0  0  0
   40.7470   37.2080   28.0880 O   0  0  0  0  0  0  0  0  0  0  0  0
   41.5260   37.7870   30.2570 C   0  0  0  0  0  0  0  0  0  0  0  0
   43.9950   38.7290   29.2420 C   0  0  0  0  0  0  0  0  0  0  0  0
   44.4550   36.8720   30.8030 O   0  0  0  0  0  0  0  0  0  0  0  0
   43.4750   39.5680   30.4280 C   0  0  0  0  0  0  0  0  0  0  0  0
   44.7700   40.1280   31.0150 C   0  0  0  0  0  0  0  0  0  0  0  0
   44.8570   37.6410   29.8660 C   0  0  0  0  0  0  0  0  0  0  0  0
   41.5590   37.6620   28.8520 C   0  0  0  0  0  0  0  0  0  0  0  0
   42.9930   38.2190   27.9920 S   0  0  0  0  0  0  0  0  0  0  0  0
   42.2970   38.8020   31.0570 C   0  0  0  0  0  0  0  0  0  0  0  0
   40.9120   36.8180   30.9680 N   0  0  0  0  0  0  0  0  0  0  0  0
  2  9  1  0
  3 10  2  0
  4 13  1  0
  4 12  1  0
  5  9  1  0
  5  7  1  0
  7  8  1  0
  7 12  1  0
  9  6  2  0
 10  4  1  0
 11 10  1  0
 11  5  1  0
 12  1  2  0
M  END
$$$$

     RDKit          3D

  9  9  0  0  0  0  0  0  0  0999 V2000
   43.1750   37.2790   30.7080 C   0  0  0  0  0  0  0  0  0  0  0  0
   41.5200   36.4250   28.9280 N   0  0  0  0  0  0  0  0  0  0  0  0
   41.2130   38.8430   29.6360 S   0  0  0  0  0  0  0  0  0  0  0  0
   44.6440   37.1190   30.2570 C   0  0  0  0  0  0  0  0  0  0  0  0
   42.0140   37.3020   29.7340 C   0  0  0  0  0  0  0  0  0  0  0  0
   39.4030   41.4680   27.1300 S   0  0  0  0  0  0  0  0  0  0  0  0
   40.4540   39.0580   27.9210 C   0  0  0  0  0  0  0  0  0  0  0  0
   40.7450   40.6160   27.9470 C   0  0  0  0  0  0  0  0  0  0  0  0
   44.1380   38.4630   30.7650 C   0  0  0  0  0  0  0  0  0  0  0  0
  1  9  1  0
  2  5  2  0
  3  5  1  0
  4  1  1  0
  4  9  1  0
  5  1  1  0
  6  8  1  0
  7  8  1  0
  7  3  1  0
M  END
$$$$

     RDKit          3D

 12 11  0  0  0  0  0  0  0  0999 V2000
   41.4930   36.1590   31.5690 O   0  0  0  0  0  0  0  0  0  0  0  0
   41.0830   38.7760   28.7650 C   0  0  0  0  0  0  0  0  0  0  0  0
   41.1420   40.1430   28.1320 C   0  0  0  0  0  0  0  0  0  0  0  0
   42.4100   38.2860   29.4370 C   0  0  0  0  0  0  0  0  0  0  0  0
   45.1500   38.4450   29.4890 C   0  0  0  0  0  0  0  0  0  0  0  0
   43.3230   37.6430   28.5620 O   0  0  0  0  0  0  0  0  0  0  0  0
   44.5590   37.1750   29.1850 C   0  0  0  0  0  0  0  0  0  0  0  0
   40.8620   37.0780   30.7710 C   0  0  0  0  0  0  0  0  0  0  0  0
   41.5720   37.1170   30.0920 C   0  0  0  0  0  0  0  0  0  0  0  0
   40.8030   39.9460   26.8110 O   0  0  0  0  0  0  0  0  0  0  0  0
   40.4810   37.8330   27.8780 O   0  0  0  0  0  0  0  0  0  0  0  0
   42.9370   39.1550   30.4390 O   0  0  0  0  0  0  0  0  0  0  0  0
  2 11  1  0
  2  4  1  0
  3  2  1  0
  4  9  1  0
  4 12  1  0
  6  7  1  0
  6  4  1  0
  7  5  1  0
  8  1  1  0
  9  8  1  0
 10  3  1  0
M  END
$$$$

     RDKit          3D

 10  9  0  0  0  0  0  0  0  0999 V2000
   41.1870   35.0510   32.1890 C   0  0  0  0  0  0  0  0  0  0  0  0
   41.3080   39.1570   29.3420 N   0  0  0  0  0  0  0  0  0  0  0  0
   42.6470   38.6360   29.2120 C   0  0  0  0  0  0  0  0  0  0  0  0
   41.1970   35.8350   30.9230 N   0  0  0  0  0  0  0  0  0  0  0  0
   43.6780   40.1250   29.2660 S   0  0  0  0  0  0  0  0  0  0  0  0
   43.0010   37.6310   30.3910 C   0  0  0  0  0  0  0  0  0  0  0  0
   40.4250   38.4800   27.0510 C   0  0  0  0  0  0  0  0  0  0  0  0
   39.9260   40.7410   27.9500 C   0  0  0  0  0  0  0  0  0  0  0  0
   41.6990   37.2900   31.1410 C   0  0  0  0  0  0  0  0  0  0  0  0
   40.5680   39.4640   28.1410 C   0  0  0  0  0  0  0  0  0  0  0  0
  3  5  1  0
  3  2  1  0
  3  6  1  0
  4  9  1  0
  4  1  1  0
  6  9  1  0
  7 10  1  0
  8 10  1  0
 10  2  1  0
M  END
$$$$

     RDKit          3D

  9  8  0  0  0  0  0  0  0  0999 V2000
   41.5140   39.2370   28.5530 C   0  0  0  0  0  0  0  0  0  0  0  0
   41.3070   38.2900   29.7900 C   0  0  0  0  0  0  0  0  0  0  0  0
   42.3890   38.4780   31.6090 O   0  0  0  0  0  0  0  0  0  0  0  0
   42.7240   37.9990   30.1860 C   0  0  0  0  0  0  0  0  0  0  0  0
   43.0500   37.3130   28.9930 O   0  0  0  0  0  0  0  0  0  0  0  0
   42.7370   40.1130   28.6670 O   0  0  0  0  0  0  0  0  0  0  0  0
   40.3860   37.1770   30.3850 C   0  0  0  0  0  0  0  0  0  0  0  0
   41.1450   36.2000   31.0670 O   0  0  0  0  0  0  0  0  0  0  0  0
   44.0030   39.5000   28.8470 C   0  0  0  0  0  0  0  0  0  0  0  0
  1  6  1  0
  2  1  1  0
  2  4  1  0
  2  7  1  0
  4  3  1  0
  5  4  2  0
  6  9  1  0
  7  8  1  0
M  END
$$$$

     RDKit          3D

 13 13  0  0  0  0  0  0  0  0999 V2000
   42.3710   37.9250   31.5430 C   0  0  0  0  0  0  0  0  0  0  0  0
   44.7430   40.6680   31.4800 C   0  0  0  0  0  0  0  0  0  0  0  0
   41.0640   38.4370   29.2910 C   0  0  0  0  0  0  0  0  0  0  0  0
   43.4610   38.6410   32.1650 C   0  0  0  0  0  0  0  0  0  0  0  0
   44.6060   38.7800   29.8680 O   0  0  0  0  0  0  0  0  0  0  0  0
   44.1320   41.6330   31.9410 O   0  0  0  0  0  0  0  0  0  0  0  0
   40.8040   36.1720   30.9040 C   0  0  0  0  0  0  0  0  0  0  0  0
   45.9910   40.6110   31.3990 O   0  0  0  0  0  0  0  0  0  0  0  0
   41.5600   36.8260   32.1640 N   0  0  0  0  0  0  0  0  0  0  0  0
   41.3960   37.0010   29.8960 C   0  0  0  0  0  0  0  0  0  0  0  0
   40.6480   37.1930   28.2690 S   0  0  0  0  0  0  0  0  0  0  0  0
   44.3310   37.5530   32.3020 O   0  0  0  0  0  0  0  0  0  0  0  0
   43.9290   39.5430   30.9640 C   0  0  0  0  0  0  0  0  0  0  0  0
  1  9  1  0
  1  4  1  0
  2  6  1  0
  3 10  1  0
  4 12  1  0
  7  9  1  0
  8  2  2  0
 10  7  1  0
 11  3  1  0
 11 10  1  0
 13  5  1  0
 13  2  1  0
 13  4  1  0
M  END
$$$$

     RDKit          3D

  6  5  0  0  0  0  0  0  0  0999 V2000
   41.2640   37.2620   29.9840 C   0  0  0  0  0  0  0  0  0  0  0  0
   41.8050   39.5950   29.9890 O   0  0  0  0  0  0  0  0  0  0  0  0
   40.1660   36.7660   29.6430 O   0  0  0  0  0  0  0  0  0  0  0  0
   42.0060   36.7230   31.0000 N   0  0  0  0  0  0  0  0  0  0  0  0
   43.2100   37.4740   31.1530 C   0  0  0  0  0  0  0  0  0  0  0  0
   41.7350   38.4350   29.1910 C   0  0  0  0  0  0  0  0  0  0  0  0
  1  4  1  0
  3  1  2  0
  4  5  1  0
  6  1  1  0
  6  2  1  0
M  END
$$$$

     RDKit          3D

  8  7  0  0  0  0  0  0  0  0999 V2000
   40.4250   38.8260   29.0230 C   0  0  0  0  0  0  0  0  0  0  0  0
   43.4740   38.8800   28.2290 O   0  0  0  0  0  0  0  0  0  0  0  0
   40.9010   37.4040   29.0830 C   0  0  0  0  0  0  0  0  0  0  0  0
   42.8250   39.7720   28.7920 C   0  0  0  0  0  0  0  0  0  0  0  0
   40.9870   36.8000   28.0040 O   0  0  0  0  0  0  0  0  0  0  0  0
   42.8090   40.9000   29.0050 O   0  0  0  0  0  0  0  0  0  0  0  0
   41.1160   36.9370   30.2390 O   0  0  0  0  0  0  0  0  0  0  0  0
   41.3920   39.7060   28.3850 O   0  0  0  0  0  0  0  0  0  0  0  0
  1  3  1  0
  2  4  2  0
  3  7  1  0
  4  6  1  0
  5  3  2  0
  8  4  1  0
  8  1  1  0
M  END
$$$$

     RDKit          3D

 12 11  0  0  0  0  0  0  0  0999 V2000
   45.1580   38.9960   28.1940 O   0  0  0  0  0  0  0  0  0  0  0  0
   45.4890   37.8560   28.8730 C   0  0  0  0  0  0  0  0  0  0  0  0
   44.0870   39.1100   25.9420 C   0  0  0  0  0  0  0  0  0  0  0  0
   41.0860   36.8700   30.4230 C   0  0  0  0  0  0  0  0  0  0  0  0
   42.4040   36.7540   30.9110 N   0  0  0  0  0  0  0  0  0  0  0  0
   40.8920   37.9420   29.2560 S   0  0  0  0  0  0  0  0  0  0  0  0
   40.1140   35.8840   31.0650 C   0  0  0  0  0  0  0  0  0  0  0  0
   44.2410   37.9550   31.6390 C   0  0  0  0  0  0  0  0  0  0  0  0
   44.1290   37.2300   29.1190 C   0  0  0  0  0  0  0  0  0  0  0  0
   43.5050   37.5710   30.3870 C   0  0  0  0  0  0  0  0  0  0  0  0
   43.3730   38.9730   32.2660 C   0  0  0  0  0  0  0  0  0  0  0  0
   45.3790   39.4740   26.8810 C   0  0  0  0  0  0  0  0  0  0  0  0
  1  2  1  0
  2  9  1  0
  3 12  1  0
  4  5  1  0
  4  7  1  0
  6  4  2  0
  8 11  1  0
 10  9  1  0
 10  5  1  0
 10  8  1  0
 12  1  1  0
M  END
$$$$

     RDKit          3D

 12 12  0  0  0  0  0  0  0  0999 V2000
   43.6350   36.8460   31.0720 O   0  0  0  0  0  0  0  0  0  0  0  0
   39.2870   41.3080   27.3140 N   0  0  0  0  0  0  0  0  0  0  0  0
   43.1760   37.1110   29.7510 C   0  0  0  0  0  0  0  0  0  0  0  0
   41.0680   36.7810   28.5970 O   0  0  0  0  0  0  0  0  0  0  0  0
   43.9560   38.3500   29.4300 C   0  0  0  0  0  0  0  0  0  0  0  0
   41.7450   37.6030   29.5150 C   0  0  0  0  0  0  0  0  0  0  0  0
   43.2140   38.2690   27.1400 O   0  0  0  0  0  0  0  0  0  0  0  0
   41.1720   37.5430   30.7120 F   0  0  0  0  0  0  0  0  0  0  0  0
   40.7920   39.3420   27.8090 C   0  0  0  0  0  0  0  0  0  0  0  0
   43.1940   38.9620   28.3130 C   0  0  0  0  0  0  0  0  0  0  0  0
   41.7940   38.9670   28.8410 C   0  0  0  0  0  0  0  0  0  0  0  0
   40.3990   40.8160   27.8390 C   0  0  0  0  0  0  0  0  0  0  0  0
  2 12  2  0
  3  1  1  0
  5  3  1  0
  6  4  1  0
  6  3  1  0
  6  8  1  0
  9 12  1  0
 10  7  1  0
 10 11  1  0
 10  5  1  0
 11  9  1  0
 11  6  1  0
M  END
$$$$
