
     RDKit          3D

 18 18  0  0  0  0  0  0  0  0999 V2000
   33.4960   42.0830   23.6050 O   0  0  0  0  0  0  0  0  0  0  0  0
   39.9060   41.9700   29.0480 O   0  0  0  0  0  0  0  0  0  0  0  0
   34.1240   42.6610   25.7800 C   0  0  0  0  0  0  0  0  0  0  0  0
   39.1910   41.4420   28.0710 C   0  0  0  0  0  0  0  0  0  0  0  0
   36.4540   41.4430   27.1870 C   0  0  0  0  0  0  0  0  0  0  0  0
   38.8880   41.8680   25.5060 C   0  0  0  0  0  0  0  0  0  0  0  0
   40.9150   42.2490   26.5740 C   0  0  0  0  0  0  0  0  0  0  0  0
   39.5790   41.7630   26.7650 N   0  0  0  0  0  0  0  0  0  0  0  0
   35.4260   40.6820   25.2660 O   0  0  0  0  0  0  0  0  0  0  0  0
   38.5590   39.4380   29.5090 C   0  0  0  0  0  0  0  0  0  0  0  0
   36.5510   42.4980   26.0980 C   0  0  0  0  0  0  0  0  0  0  0  0
   37.2580   39.9540   28.8130 C   0  0  0  0  0  0  0  0  0  0  0  0
   38.2330   40.3990   28.5090 N   0  0  0  0  0  0  0  0  0  0  0  0
   37.7760   42.6430   25.1840 C   0  0  0  0  0  0  0  0  0  0  0  0
   38.3500   38.2330   30.3060 C   0  0  0  0  0  0  0  0  0  0  0  0
   32.9900   42.2190   24.9190 C   0  0  0  0  0  0  0  0  0  0  0  0
   36.2550   40.1390   26.3710 C   0  0  0  0  0  0  0  0  0  0  0  0
   35.4290   42.0130   25.2500 C   0  0  0  0  0  0  0  0  0  0  0  0
  1 16  1  0
  4 13  1  0
  4  2  2  0
  6  8  1  0
  7  8  1  0
  8  4  1  0
  9 17  1  0
 10 15  1  0
 11 14  1  0
 11  5  1  0
 13 12  1  0
 13 10  1  0
 14  6  1  0
 16  3  1  0
 17  5  1  0
 18  9  1  0
 18  3  1  0
 18 11  1  0
M  END
$$$$

     RDKit          3D

 20 20  0  0  0  0  0  0  0  0999 V2000
   35.6610   40.7910   26.7960 C   0  0  0  0  0  0  0  0  0  0  0  0
   38.3590   42.1970   26.8060 O   0  0  0  0  0  0  0  0  0  0  0  0
   39.1810   41.7820   28.3670 S   0  0  0  0  0  0  0  0  0  0  0  0
   33.7000   41.4630   25.6460 C   0  0  0  0  0  0  0  0  0  0  0  0
   34.5470   41.6070   26.7350 C   0  0  0  0  0  0  0  0  0  0  0  0
   40.6520   41.7460   27.4170 C   0  0  0  0  0  0  0  0  0  0  0  0
   38.7180   42.8340   29.3180 O   0  0  0  0  0  0  0  0  0  0  0  0
   31.3720   40.0300   25.5010 O   0  0  0  0  0  0  0  0  0  0  0  0
   38.2590   39.4280   29.3240 C   0  0  0  0  0  0  0  0  0  0  0  0
   39.3350   40.3480   29.2020 N   0  0  0  0  0  0  0  0  0  0  0  0
   35.9720   39.8600   25.8070 C   0  0  0  0  0  0  0  0  0  0  0  0
   30.4970   39.8210   23.4340 N   0  0  0  0  0  0  0  0  0  0  0  0
   31.5920   40.0060   24.2890 C   0  0  0  0  0  0  0  0  0  0  0  0
   36.4690   40.8190   27.9720 O   0  0  0  0  0  0  0  0  0  0  0  0
   38.6770   38.5520   30.4630 C   0  0  0  0  0  0  0  0  0  0  0  0
   40.8200   43.0470   26.8730 O   0  0  0  0  0  0  0  0  0  0  0  0
   35.0840   39.7280   24.7390 C   0  0  0  0  0  0  0  0  0  0  0  0
   33.9060   40.4700   24.7050 C   0  0  0  0  0  0  0  0  0  0  0  0
   36.9280   39.4940   28.5310 C   0  0  0  0  0  0  0  0  0  0  0  0
   32.9610   40.1530   23.7810 N   0  0  0  0  0  0  0  0  0  0  0  0
  1 14  1  0
  2  3  2  0
  3 10  1  0
  3  7  2  0
  4  5  2  0
  5  1  1  0
  6  3  1  0
  9 15  1  0
 10  9  2  3
 11  1  2  0
 12 13  1  0
 13  8  2  0
 14 19  1  0
 16  6  1  0
 17 11  1  0
 18 17  2  0
 18  4  1  0
 19  9  1  0
 20 13  1  0
 20 18  1  0
M  END
$$$$

     RDKit          3D

 12 11  0  0  0  0  0  0  0  0999 V2000
   34.1530   40.5850   24.0920 S   0  0  0  0  0  0  0  0  0  0  0  0
   36.7050   39.3740   26.7320 O   0  0  0  0  0  0  0  0  0  0  0  0
   40.0690   40.1360   28.1580 O   0  0  0  0  0  0  0  0  0  0  0  0
   39.2740   41.0000   28.5830 C   0  0  0  0  0  0  0  0  0  0  0  0
   37.7660   40.7290   28.5240 C   0  0  0  0  0  0  0  0  0  0  0  0
   39.7600   42.0460   29.0450 O   0  0  0  0  0  0  0  0  0  0  0  0
   37.1230   41.8910   26.3680 C   0  0  0  0  0  0  0  0  0  0  0  0
   36.9670   40.6230   27.2240 C   0  0  0  0  0  0  0  0  0  0  0  0
   35.6820   41.5430   24.5010 C   0  0  0  0  0  0  0  0  0  0  0  0
   37.7350   42.8960   27.2590 O   0  0  0  0  0  0  0  0  0  0  0  0
   35.7530   42.2660   25.8330 C   0  0  0  0  0  0  0  0  0  0  0  0
   35.7110   43.7870   25.6260 C   0  0  0  0  0  0  0  0  0  0  0  0
  1  9  1  0
  3  4  2  0
  4  6  1  0
  5  4  1  0
  7  8  1  0
  7 10  1  0
  8  2  1  0
  8  5  1  0
  9 11  1  0
 11 12  1  0
 11  7  1  0
M  END
$$$$

     RDKit          3D

 16 18  0  0  0  0  0  0  0  0999 V2000
   43.1260   41.8520   25.9030 O   0  0  0  0  0  0  0  0  0  0  0  0
   38.5110   39.3830   30.0470 C   0  0  0  0  0  0  0  0  0  0  0  0
   38.0660   41.7800   26.8440 C   0  0  0  0  0  0  0  0  0  0  0  0
   38.3150   39.9330   28.6890 C   0  0  0  0  0  0  0  0  0  0  0  0
   39.4420   40.3290   28.1290 N   0  0  0  0  0  0  0  0  0  0  0  0
   36.4450   40.4270   25.8690 O   0  0  0  0  0  0  0  0  0  0  0  0
   40.0250   43.8940   25.4860 O   0  0  0  0  0  0  0  0  0  0  0  0
   39.3510   41.5320   25.7180 C   0  0  0  0  0  0  0  0  0  0  0  0
   37.6460   43.0820   26.7530 O   0  0  0  0  0  0  0  0  0  0  0  0
   37.0780   40.0010   28.0750 C   0  0  0  0  0  0  0  0  0  0  0  0
   37.0770   40.7040   26.8900 C   0  0  0  0  0  0  0  0  0  0  0  0
   41.2110   43.0690   25.0860 C   0  0  0  0  0  0  0  0  0  0  0  0
   38.6030   41.6730   24.2560 C   0  0  0  0  0  0  0  0  0  0  0  0
   41.8060   42.3120   26.3250 C   0  0  0  0  0  0  0  0  0  0  0  0
   40.8920   41.6320   25.3560 C   0  0  0  0  0  0  0  0  0  0  0  0
   39.2950   40.9310   26.9220 C   0  0  0  0  0  0  0  0  0  0  0  0
  3  9  1  0
  3 11  1  0
  3 16  1  0
  4  2  1  0
  5  4  1  0
  6 11  2  0
  8 13  1  0
  8  3  1  0
  8 16  1  0
 10  4  1  0
 11 10  1  0
 12 15  1  0
 12  7  1  0
 12 14  1  0
 14  1  1  0
 15  8  1  0
 15 14  1  0
 16  5  1  0
M  END
$$$$

     RDKit          3D

  6  6  0  0  0  0  0  0  0  0999 V2000
   39.9610   40.6450   28.3790 N   0  0  0  0  0  0  0  0  0  0  0  0
   38.1370   41.8570   29.2870 C   0  0  0  0  0  0  0  0  0  0  0  0
   37.2250   41.1960   28.5610 N   0  0  0  0  0  0  0  0  0  0  0  0
   39.4970   41.5230   29.2520 C   0  0  0  0  0  0  0  0  0  0  0  0
   37.7310   40.3650   27.6230 C   0  0  0  0  0  0  0  0  0  0  0  0
   39.0450   40.2200   27.4560 C   0  0  0  0  0  0  0  0  0  0  0  0
  1  4  1  0
  3  2  1  0
  4  2  2  0
  5  3  2  0
  6  5  1  0
  6  1  2  0
M  END
$$$$

     RDKit          3D

 13 14  0  0  0  0  0  0  0  0999 V2000
   37.1670   40.3490   26.7990 N   0  0  0  0  0  0  0  0  0  0  0  0
   40.1620   42.7290   28.6860 C   0  0  0  0  0  0  0  0  0  0  0  0
   36.1140   42.2810   26.4990 C   0  0  0  0  0  0  0  0  0  0  0  0
   41.1260   40.8120   29.9890 C   0  0  0  0  0  0  0  0  0  0  0  0
   39.6320   41.7120   29.8170 C   0  0  0  0  0  0  0  0  0  0  0  0
   37.0070   40.9130   28.1490 C   0  0  0  0  0  0  0  0  0  0  0  0
   33.8060   41.9440   25.8170 O   0  0  0  0  0  0  0  0  0  0  0  0
   36.4840   38.7230   24.7620 O   0  0  0  0  0  0  0  0  0  0  0  0
   35.4500   39.5650   25.3480 C   0  0  0  0  0  0  0  0  0  0  0  0
   34.8770   41.5400   26.6560 C   0  0  0  0  0  0  0  0  0  0  0  0
   36.0380   40.9430   25.9220 C   0  0  0  0  0  0  0  0  0  0  0  0
   38.3490   40.6550   29.2520 S   0  0  0  0  0  0  0  0  0  0  0  0
   36.8610   42.3670   27.6810 N   0  0  0  0  0  0  0  0  0  0  0  0
  1  6  1  0
  2  5  1  0
  3 10  1  0
  3 13  1  0
  5  4  1  0
  6 12  1  0
  8  9  1  0
 10  7  1  0
 11  9  1  0
 11  3  1  0
 11 10  1  0
 11  1  1  0
 12  5  1  0
 13  6  1  0
M  END
$$$$

     RDKit          3D

 12 12  0  0  0  0  0  0  0  0999 V2000
   39.6470   41.7950   26.9660 C   0  0  0  0  0  0  0  0  0  0  0  0
   37.2480   41.8100   25.8380 C   0  0  0  0  0  0  0  0  0  0  0  0
   37.9690   40.6340   29.3440 C   0  0  0  0  0  0  0  0  0  0  0  0
   36.9890   40.2800   25.8820 C   0  0  0  0  0  0  0  0  0  0  0  0
   35.6090   40.0620   25.5520 O   0  0  0  0  0  0  0  0  0  0  0  0
   38.7860   38.3350   29.9730 N   0  0  0  0  0  0  0  0  0  0  0  0
   38.1070   41.9690   27.0920 C   0  0  0  0  0  0  0  0  0  0  0  0
   36.1090   42.6930   26.0630 O   0  0  0  0  0  0  0  0  0  0  0  0
   37.3080   39.7960   27.0840 O   0  0  0  0  0  0  0  0  0  0  0  0
   37.5760   39.2220   29.8210 C   0  0  0  0  0  0  0  0  0  0  0  0
   37.4480   40.9570   28.0000 C   0  0  0  0  0  0  0  0  0  0  0  0
   40.2270   41.2650   25.8930 O   0  0  0  0  0  0  0  0  0  0  0  0
  2  4  1  0
  2  8  1  0
  2  7  1  0
  3 10  1  0
  4  5  1  0
  4  9  1  0
  7  1  1  0
  7 11  1  0
  9 11  1  0
 10  6  1  0
 11  3  1  0
 12  1  1  0
M  END
$$$$

     RDKit          3D

 21 22  0  0  0  0  0  0  0  0999 V2000
   41.0380   41.0220   29.1150 C   0  0  0  0  0  0  0  0  0  0  0  0
   37.4070   40.0750   28.5700 C   0  0  0  0  0  0  0  0  0  0  0  0
   35.8560   41.4140   25.3310 N   0  0  0  0  0  0  0  0  0  0  0  0
   31.4870   42.2420   25.0090 C   0  0  0  0  0  0  0  0  0  0  0  0
   36.5900   40.1600   27.3790 C   0  0  0  0  0  0  0  0  0  0  0  0
   41.6910   41.9350   30.0490 C   0  0  0  0  0  0  0  0  0  0  0  0
   36.6150   41.2040   26.5730 C   0  0  0  0  0  0  0  0  0  0  0  0
   39.5920   39.2610   30.0110 N   0  0  0  0  0  0  0  0  0  0  0  0
   38.5960   40.9830   28.5300 C   0  0  0  0  0  0  0  0  0  0  0  0
   32.2800   41.6760   24.1890 C   0  0  0  0  0  0  0  0  0  0  0  0
   40.7420   42.3630   31.0680 O   0  0  0  0  0  0  0  0  0  0  0  0
   33.6370   42.1120   26.1030 C   0  0  0  0  0  0  0  0  0  0  0  0
   38.6760   42.1270   27.6360 C   0  0  0  0  0  0  0  0  0  0  0  0
   32.2820   42.7150   26.0540 N   0  0  0  0  0  0  0  0  0  0  0  0
   37.5770   42.3250   26.8070 C   0  0  0  0  0  0  0  0  0  0  0  0
   36.2500   38.6970   24.9670 O   0  0  0  0  0  0  0  0  0  0  0  0
   34.5960   40.8780   22.8560 O   0  0  0  0  0  0  0  0  0  0  0  0
   33.4930   41.0200   24.9510 C   0  0  0  0  0  0  0  0  0  0  0  0
   35.2500   39.1870   24.4070 C   0  0  0  0  0  0  0  0  0  0  0  0
   34.9100   40.7850   24.3290 C   0  0  0  0  0  0  0  0  0  0  0  0
   39.6140   40.6990   29.6460 C   0  0  0  0  0  0  0  0  0  0  0  0
  1 21  1  0
  1  6  1  0
  3  7  1  0
  4 14  1  0
  5  2  1  0
  6 11  1  0
  7 15  1  0
  7  5  2  0
  9  2  1  0
  9 21  1  0
 10 18  1  0
 10  4  1  0
 13  9  2  0
 14 12  1  0
 15 13  1  0
 18 20  1  0
 18 12  1  0
 19 16  2  0
 20 17  1  0
 20 19  1  0
 20  3  1  0
 21  8  1  0
M  END
$$$$

     RDKit          3D

  9  8  0  0  0  0  0  0  0  0999 V2000
   37.4010   42.7320   26.0650 O   0  0  0  0  0  0  0  0  0  0  0  0
   39.7100   41.7250   25.0640 C   0  0  0  0  0  0  0  0  0  0  0  0
   37.2080   39.0200   27.5390 C   0  0  0  0  0  0  0  0  0  0  0  0
   38.1470   42.1110   27.1100 C   0  0  0  0  0  0  0  0  0  0  0  0
   39.3810   41.5060   26.4860 C   0  0  0  0  0  0  0  0  0  0  0  0
   40.1100   40.7730   27.1760 O   0  0  0  0  0  0  0  0  0  0  0  0
   38.0260   40.1030   29.5630 O   0  0  0  0  0  0  0  0  0  0  0  0
   37.0680   41.2970   27.7900 C   0  0  0  0  0  0  0  0  0  0  0  0
   37.4280   40.0710   28.3680 N   0  0  0  0  0  0  0  0  0  0  0  0
  2  5  1  0
  3  9  1  0
  4  1  1  0
  4  8  1  0
  5  4  1  0
  5  6  2  0
  8  9  1  0
  9  7  1  0
M  END
$$$$

     RDKit          3D

 11 11  0  0  0  0  0  0  0  0999 V2000
   37.5290   40.5100   28.7760 C   0  0  0  0  0  0  0  0  0  0  0  0
   35.6880   42.4100   26.8930 C   0  0  0  0  0  0  0  0  0  0  0  0
   36.3090   41.2340   26.5910 N   0  0  0  0  0  0  0  0  0  0  0  0
   39.0520   40.5860   29.0270 C   0  0  0  0  0  0  0  0  0  0  0  0
   37.1340   39.1320   26.5780 O   0  0  0  0  0  0  0  0  0  0  0  0
   37.4170   40.6300   27.2190 C   0  0  0  0  0  0  0  0  0  0  0  0
   39.4140   40.7670   30.2160 O   0  0  0  0  0  0  0  0  0  0  0  0
   36.1210   40.9570   25.1630 C   0  0  0  0  0  0  0  0  0  0  0  0
   36.6940   40.8050   23.7600 C   0  0  0  0  0  0  0  0  0  0  0  0
   34.9660   41.9660   25.2130 C   0  0  0  0  0  0  0  0  0  0  0  0
   39.9870   40.6010   28.1300 O   0  0  0  0  0  0  0  0  0  0  0  0
  1  4  1  0
  3  2  1  0
  3  6  1  0
  4  7  1  0
  6  5  1  0
  6  1  1  0
  8  9  1  0
  8 10  1  0
  8  3  1  0
 10  2  1  0
 11  4  2  0
M  END
$$$$

     RDKit          3D

  7  6  0  0  0  0  0  0  0  0999 V2000
   37.7720   40.7020   27.2010 C   0  0  0  0  0  0  0  0  0  0  0  0
   36.8620   39.6060   27.7390 C   0  0  0  0  0  0  0  0  0  0  0  0
   38.7610   41.2270   28.2410 C   0  0  0  0  0  0  0  0  0  0  0  0
   35.5290   41.7830   26.6520 C   0  0  0  0  0  0  0  0  0  0  0  0
   39.5090   40.3420   28.9270 N   0  0  0  0  0  0  0  0  0  0  0  0
   37.0200   41.9320   26.7290 C   0  0  0  0  0  0  0  0  0  0  0  0
   38.8450   42.4480   28.4570 O   0  0  0  0  0  0  0  0  0  0  0  0
  1  2  1  0
  1  3  1  0
  3  7  2  0
  3  5  1  0
  4  6  1  0
  6  1  1  0
M  END
$$$$

     RDKit          3D

 13 13  0  0  0  0  0  0  0  0999 V2000
   35.5310   42.1110   26.8040 C   0  0  0  0  0  0  0  0  0  0  0  0
   39.4800   42.1190   26.9880 O   0  0  0  0  0  0  0  0  0  0  0  0
   37.0900   39.0170   28.8540 O   0  0  0  0  0  0  0  0  0  0  0  0
   34.4590   42.1650   25.8230 C   0  0  0  0  0  0  0  0  0  0  0  0
   37.4810   41.0360   27.5990 C   0  0  0  0  0  0  0  0  0  0  0  0
   35.0210   41.1090   24.4900 S   0  0  0  0  0  0  0  0  0  0  0  0
   36.2310   40.7930   26.8900 N   0  0  0  0  0  0  0  0  0  0  0  0
   36.4760   39.0640   25.2700 O   0  0  0  0  0  0  0  0  0  0  0  0
   37.8650   39.8760   28.4770 C   0  0  0  0  0  0  0  0  0  0  0  0
   36.1010   40.2010   25.6210 C   0  0  0  0  0  0  0  0  0  0  0  0
   38.6150   41.2480   26.6040 C   0  0  0  0  0  0  0  0  0  0  0  0
   34.0610   43.9020   25.3350 S   0  0  0  0  0  0  0  0  0  0  0  0
   39.1530   39.9580   28.9050 N   0  0  0  0  0  0  0  0  0  0  0  0
  1  7  1  0
  4 12  1  0
  4  1  1  0
  5 11  1  0
  5  9  1  0
  6 10  1  0
  6  4  1  0
  7  5  1  0
  8 10  2  0
  9  3  2  0
  9 13  1  0
 10  7  1  0
 11  2  1  0
M  END
$$$$

     RDKit          3D

 13 12  0  0  0  0  0  0  0  0999 V2000
   37.2800   41.0090   28.1580 N   0  0  0  0  0  0  0  0  0  0  0  0
   39.4710   39.2890   30.3290 N   0  0  0  0  0  0  0  0  0  0  0  0
   36.8170   39.3450   26.5400 O   0  0  0  0  0  0  0  0  0  0  0  0
   36.3960   43.6670   25.7780 O   0  0  0  0  0  0  0  0  0  0  0  0
   33.7770   41.4120   25.6520 O   0  0  0  0  0  0  0  0  0  0  0  0
   36.1210   41.2130   27.6480 C   0  0  0  0  0  0  0  0  0  0  0  0
   34.3630   43.3710   24.4710 O   0  0  0  0  0  0  0  0  0  0  0  0
   38.4220   40.5300   28.7210 C   0  0  0  0  0  0  0  0  0  0  0  0
   35.2780   41.4430   25.5840 C   0  0  0  0  0  0  0  0  0  0  0  0
   35.6860   42.7320   24.9170 C   0  0  0  0  0  0  0  0  0  0  0  0
   36.5830   40.6530   25.9240 C   0  0  0  0  0  0  0  0  0  0  0  0
   38.2610   39.3360   29.6100 C   0  0  0  0  0  0  0  0  0  0  0  0
   39.4480   41.1690   28.4290 O   0  0  0  0  0  0  0  0  0  0  0  0
  1  8  1  0
  6  1  1  0
  7 10  1  0
  8 12  1  0
  9  5  1  0
  9 11  1  0
 10  9  1  0
 10  4  1  0
 11  3  1  0
 11  6  1  0
 12  2  1  0
 13  8  2  0
M  END
$$$$

     RDKit          3D

 14 14  0  0  0  0  0  0  0  0999 V2000
   41.1790   42.3150   26.0020 N   0  0  0  0  0  0  0  0  0  0  0  0
   41.6360   41.6130   28.1500 N   0  0  0  0  0  0  0  0  0  0  0  0
   34.9830   43.5890   25.9490 C   0  0  0  0  0  0  0  0  0  0  0  0
   38.9430   40.4250   28.2880 C   0  0  0  0  0  0  0  0  0  0  0  0
   36.3890   42.3810   24.0600 N   0  0  0  0  0  0  0  0  0  0  0  0
   36.6530   40.5800   27.5030 C   0  0  0  0  0  0  0  0  0  0  0  0
   37.2900   38.8890   29.3080 C   0  0  0  0  0  0  0  0  0  0  0  0
   34.5560   41.2020   25.3540 O   0  0  0  0  0  0  0  0  0  0  0  0
   37.0030   41.5450   26.5500 C   0  0  0  0  0  0  0  0  0  0  0  0
   38.3570   41.9440   26.4860 C   0  0  0  0  0  0  0  0  0  0  0  0
   37.6300   39.9840   28.3450 C   0  0  0  0  0  0  0  0  0  0  0  0
   35.7110   42.0920   25.4390 S   0  0  0  0  0  0  0  0  0  0  0  0
   39.3340   41.3990   27.3130 C   0  0  0  0  0  0  0  0  0  0  0  0
   40.7820   41.7890   27.1540 C   0  0  0  0  0  0  0  0  0  0  0  0
  1 14  2  0
  4 11  1  0
  5 12  1  0
  6 11  2  0
  8 12  1  0
  9  6  1  0
 10  9  2  0
 10 13  1  0
 11  7  1  0
 12  3  1  0
 12  9  1  0
 13  4  2  0
 14 13  1  0
 14  2  1  0
M  END
$$$$

     RDKit          3D

 15 16  0  0  0  0  0  0  0  0999 V2000
   37.9840   39.2200   29.6390 C   0  0  0  0  0  0  0  0  0  0  0  0
   36.1030   41.4790   26.9290 C   0  0  0  0  0  0  0  0  0  0  0  0
   38.4290   43.0020   27.9700 N   0  0  0  0  0  0  0  0  0  0  0  0
   37.4330   41.3530   23.0780 C   0  0  0  0  0  0  0  0  0  0  0  0
   38.7030   40.4480   30.0610 N   0  0  0  0  0  0  0  0  0  0  0  0
   36.1490   40.5620   25.6680 C   0  0  0  0  0  0  0  0  0  0  0  0
   38.5720   41.5210   27.8920 C   0  0  0  0  0  0  0  0  0  0  0  0
   37.0890   40.9930   28.0370 C   0  0  0  0  0  0  0  0  0  0  0  0
   36.0960   41.9260   23.5290 C   0  0  0  0  0  0  0  0  0  0  0  0
   36.3210   42.9310   26.4560 C   0  0  0  0  0  0  0  0  0  0  0  0
   37.6150   43.6350   26.8430 C   0  0  0  0  0  0  0  0  0  0  0  0
   36.9610   39.5670   28.5460 C   0  0  0  0  0  0  0  0  0  0  0  0
   39.5230   40.9940   28.9630 C   0  0  0  0  0  0  0  0  0  0  0  0
   35.5320   41.1150   24.5190 N   0  0  0  0  0  0  0  0  0  0  0  0
   36.6880   39.4430   25.6220 O   0  0  0  0  0  0  0  0  0  0  0  0
  1  5  1  0
  2  6  1  0
  2  8  1  0
  4  9  1  0
  7  3  1  0
  7  8  1  0
  7 13  1  0
  8 12  1  0
  9 14  1  0
 10 11  1  0
 10  2  1  0
 11  3  1  0
 12  1  1  0
 13  5  1  0
 14  6  1  0
 15  6  2  0
M  END
$$$$

     RDKit          3D

 17 18  0  0  0  0  0  0  0  0999 V2000
   39.8100   41.8820   28.3360 C   0  0  0  0  0  0  0  0  0  0  0  0
   40.0740   42.1730   29.6880 O   0  0  0  0  0  0  0  0  0  0  0  0
   36.2100   41.7880   24.4030 N   0  0  0  0  0  0  0  0  0  0  0  0
   37.9600   38.1300   30.0620 S   0  0  0  0  0  0  0  0  0  0  0  0
   38.3770   39.8240   29.3570 S   0  0  0  0  0  0  0  0  0  0  0  0
   36.2280   40.6850   26.2370 C   0  0  0  0  0  0  0  0  0  0  0  0
   38.5740   42.6870   27.9140 C   0  0  0  0  0  0  0  0  0  0  0  0
   37.8760   42.0760   26.8720 O   0  0  0  0  0  0  0  0  0  0  0  0
   34.3220   41.9810   25.6800 C   0  0  0  0  0  0  0  0  0  0  0  0
   35.6700   42.9410   24.2810 O   0  0  0  0  0  0  0  0  0  0  0  0
   36.7310   39.4600   25.7040 O   0  0  0  0  0  0  0  0  0  0  0  0
   37.0740   39.9550   28.1920 C   0  0  0  0  0  0  0  0  0  0  0  0
   39.6680   40.3940   28.3030 C   0  0  0  0  0  0  0  0  0  0  0  0
   36.8640   41.2170   27.4950 C   0  0  0  0  0  0  0  0  0  0  0  0
   34.8520   43.3590   25.3890 C   0  0  0  0  0  0  0  0  0  0  0  0
   39.0130   44.1170   27.5640 C   0  0  0  0  0  0  0  0  0  0  0  0
   35.6010   41.4150   25.5440 C   0  0  0  0  0  0  0  0  0  0  0  0
  1  2  1  0
  3 17  1  0
  5  4  1  0
  6 11  1  0
  7 16  1  0
  7  1  1  0
  8 14  1  0
  8  7  1  0
 10  3  1  0
 10 15  1  0
 12  5  1  0
 13  1  1  0
 13  5  1  0
 14  6  1  0
 14 12  1  0
 15  9  1  0
 17  9  1  0
 17  6  1  0
M  END
$$$$

     RDKit          3D

 11 11  0  0  0  0  0  0  0  0999 V2000
   38.9370   39.5310   25.1620 N   0  0  0  0  0  0  0  0  0  0  0  0
   33.8690   42.3080   25.3040 C   0  0  0  0  0  0  0  0  0  0  0  0
   39.3690   43.0060   27.9230 C   0  0  0  0  0  0  0  0  0  0  0  0
   37.2910   42.1920   27.3310 C   0  0  0  0  0  0  0  0  0  0  0  0
   37.8340   40.3360   25.9760 C   0  0  0  0  0  0  0  0  0  0  0  0
   36.5290   39.8480   26.0150 O   0  0  0  0  0  0  0  0  0  0  0  0
   35.5340   40.3650   25.4050 C   0  0  0  0  0  0  0  0  0  0  0  0
   38.3170   41.2820   26.7380 N   0  0  0  0  0  0  0  0  0  0  0  0
   35.7250   42.1350   26.9900 C   0  0  0  0  0  0  0  0  0  0  0  0
   39.5100   41.7280   27.2610 C   0  0  0  0  0  0  0  0  0  0  0  0
   35.3780   41.9150   25.5830 C   0  0  0  0  0  0  0  0  0  0  0  0
  5  1  1  0
  5  6  1  0
  5  8  1  0
  7 11  1  0
  7  6  1  0
  8 10  1  0
  8  4  1  0
  9  4  1  0
 10  3  1  0
 11  2  1  0
 11  9  1  0
M  END
$$$$

     RDKit          3D

 10  9  0  0  0  0  0  0  0  0999 V2000
   36.6570   41.2230   24.4530 N   0  0  0  0  0  0  0  0  0  0  0  0
   34.2160   42.8830   24.9710 C   0  0  0  0  0  0  0  0  0  0  0  0
   37.0630   41.6520   26.9020 C   0  0  0  0  0  0  0  0  0  0  0  0
   37.5370   40.0010   28.6170 C   0  0  0  0  0  0  0  0  0  0  0  0
   36.0800   41.6240   25.7620 C   0  0  0  0  0  0  0  0  0  0  0  0
   37.6240   38.6880   29.0920 C   0  0  0  0  0  0  0  0  0  0  0  0
   37.5120   40.2400   27.1220 C   0  0  0  0  0  0  0  0  0  0  0  0
   32.9510   43.5160   25.5770 C   0  0  0  0  0  0  0  0  0  0  0  0
   35.5930   43.0730   25.6210 C   0  0  0  0  0  0  0  0  0  0  0  0
   38.3270   38.5570   30.3390 N   0  0  0  0  0  0  0  0  0  0  0  0
  2  8  1  0
  2  9  1  0
  3  7  1  0
  4  6  1  0
  5  1  1  0
  5  3  1  0
  6 10  1  0
  7  4  1  0
  9  5  1  0
M  END
$$$$

     RDKit          3D

 13 12  0  0  0  0  0  0  0  0999 V2000
   37.4050   40.1390   28.1110 C   0  0  0  0  0  0  0  0  0  0  0  0
   33.9050   41.3210   25.9000 C   0  0  0  0  0  0  0  0  0  0  0  0
   36.8160   42.4450   24.1210 O   0  0  0  0  0  0  0  0  0  0  0  0
   38.2360   44.5230   26.8830 O   0  0  0  0  0  0  0  0  0  0  0  0
   35.9460   43.3160   26.4730 C   0  0  0  0  0  0  0  0  0  0  0  0
   38.0490   39.9980   29.5710 C   0  0  0  0  0  0  0  0  0  0  0  0
   39.2360   39.1330   29.5160 N   0  0  0  0  0  0  0  0  0  0  0  0
   35.9000   41.8740   27.0340 C   0  0  0  0  0  0  0  0  0  0  0  0
   37.1880   39.1350   27.3600 O   0  0  0  0  0  0  0  0  0  0  0  0
   35.3510   40.8890   26.0010 C   0  0  0  0  0  0  0  0  0  0  0  0
   37.0530   41.4570   27.7710 N   0  0  0  0  0  0  0  0  0  0  0  0
   38.1860   43.3410   25.9240 C   0  0  0  0  0  0  0  0  0  0  0  0
   36.8580   43.4030   25.2050 C   0  0  0  0  0  0  0  0  0  0  0  0
  1  6  1  0
  2 10  1  0
  5  8  1  0
  7  6  1  0
  8 10  1  0
  8 11  1  0
  9  1  2  0
 11  1  1  0
 12  4  1  0
 13  3  1  0
 13 12  1  0
 13  5  1  0
M  END
$$$$

     RDKit          3D

  7  6  0  0  0  0  0  0  0  0999 V2000
   39.6960   42.4040   27.6380 O   0  0  0  0  0  0  0  0  0  0  0  0
   36.1440   41.4240   27.5910 C   0  0  0  0  0  0  0  0  0  0  0  0
   37.5820   41.3500   28.0590 C   0  0  0  0  0  0  0  0  0  0  0  0
   37.9890   40.0810   28.8150 C   0  0  0  0  0  0  0  0  0  0  0  0
   37.2790   38.9260   28.9110 C   0  0  0  0  0  0  0  0  0  0  0  0
   38.6270   41.6470   26.9730 C   0  0  0  0  0  0  0  0  0  0  0  0
   39.2000   40.0980   29.4310 O   0  0  0  0  0  0  0  0  0  0  0  0
  3  2  1  0
  3  4  1  0
  4  5  2  0
  4  7  1  0
  6  1  1  0
  6  3  1  0
M  END
$$$$
