
     RDKit          3D

  6  5  0  0  0  0  0  0  0  0999 V2000
   41.3750   36.2530   27.3110 C   0  0  0  0  0  0  0  0  0  0  0  0
   40.2110   33.2400   29.0290 C   0  0  0  0  0  0  0  0  0  0  0  0
   41.4210   34.6930   27.4110 C   0  0  0  0  0  0  0  0  0  0  0  0
   41.4750   34.1200   28.7930 C   0  0  0  0  0  0  0  0  0  0  0  0
   42.0960   34.0850   26.3860 N   0  0  0  0  0  0  0  0  0  0  0  0
   41.0360   36.8740   26.0440 N   0  0  0  0  0  0  0  0  0  0  0  0
  1  3  1  0
  3  5  1  0
  3  4  1  0
  4  2  1  0
  6  1  1  0
M  END
$$$$

     RDKit          3D

  4  3  0  0  0  0  0  0  0  0999 V2000
   40.9920   34.7130   27.6360 C   0  0  0  0  0  0  0  0  0  0  0  0
   42.2150   35.4310   27.1010 C   0  0  0  0  0  0  0  0  0  0  0  0
   39.6510   35.0740   27.0310 C   0  0  0  0  0  0  0  0  0  0  0  0
   41.1090   33.8670   28.6820 N   0  0  0  0  0  0  0  0  0  0  0  0
  1  4  1  0
  2  1  1  0
  3  1  1  0
M  END
$$$$

     RDKit          3D

 15 16  0  0  0  0  0  0  0  0999 V2000
   42.2510   34.2060   27.5390 N   0  0  0  0  0  0  0  0  0  0  0  0
   43.1630   35.7040   25.8150 C   0  0  0  0  0  0  0  0  0  0  0  0
   43.6570   34.2540   27.3280 C   0  0  0  0  0  0  0  0  0  0  0  0
   40.4390   36.2980   27.6960 O   0  0  0  0  0  0  0  0  0  0  0  0
   39.7460   35.1310   24.3330 C   0  0  0  0  0  0  0  0  0  0  0  0
   39.6520   34.0970   27.2750 O   0  0  0  0  0  0  0  0  0  0  0  0
   40.2580   35.2300   26.7400 S   0  0  0  0  0  0  0  0  0  0  0  0
   41.4730   34.6590   26.4620 C   0  0  0  0  0  0  0  0  0  0  0  0
   40.0260   36.2420   23.3000 C   0  0  0  0  0  0  0  0  0  0  0  0
   41.6100   33.6770   28.7620 C   0  0  0  0  0  0  0  0  0  0  0  0
   42.1820   34.8120   25.3110 C   0  0  0  0  0  0  0  0  0  0  0  0
   40.1190   33.4080   28.4540 C   0  0  0  0  0  0  0  0  0  0  0  0
   39.5770   35.7690   25.6060 N   0  0  0  0  0  0  0  0  0  0  0  0
   38.4400   34.4420   23.9520 C   0  0  0  0  0  0  0  0  0  0  0  0
   44.1700   35.1530   26.5110 C   0  0  0  0  0  0  0  0  0  0  0  0
  1  3  1  0
  1 10  1  0
  2 15  1  0
  5 13  1  0
  6 12  1  0
  7  6  1  0
  7  4  1  0
  8 11  1  0
  8  7  1  0
  8  1  1  0
  9  5  1  0
 11  2  1  0
 12 10  1  0
 13  7  1  0
 14  5  1  0
 15  3  1  0
M  END
$$$$

     RDKit          3D

 15 15  0  0  0  0  0  0  0  0999 V2000
   41.9250   34.2110   27.6560 C   0  0  0  0  0  0  0  0  0  0  0  0
   42.2310   35.9770   22.9830 O   0  0  0  0  0  0  0  0  0  0  0  0
   44.1990   34.8020   24.9900 O   0  0  0  0  0  0  0  0  0  0  0  0
   41.9840   33.4120   24.3320 O   0  0  0  0  0  0  0  0  0  0  0  0
   42.7770   34.5940   24.9520 S   0  0  0  0  0  0  0  0  0  0  0  0
   41.9940   34.9760   26.4100 N   0  0  0  0  0  0  0  0  0  0  0  0
   39.1070   35.7110   25.3200 O   0  0  0  0  0  0  0  0  0  0  0  0
   39.6910   36.9050   24.8250 C   0  0  0  0  0  0  0  0  0  0  0  0
   40.2160   32.9140   28.8580 C   0  0  0  0  0  0  0  0  0  0  0  0
   40.4830   34.2450   28.1970 C   0  0  0  0  0  0  0  0  0  0  0  0
   41.2600   36.8260   25.0630 C   0  0  0  0  0  0  0  0  0  0  0  0
   43.4470   35.0390   28.4590 Br  0  0  0  0  0  0  0  0  0  0  0  0
   41.4800   36.2970   26.4400 C   0  0  0  0  0  0  0  0  0  0  0  0
   42.0450   35.9510   24.0930 C   0  0  0  0  0  0  0  0  0  0  0  0
   41.3780   37.0330   27.4240 O   0  0  0  0  0  0  0  0  0  0  0  0
  1 10  1  0
  1 12  1  0
  2 14  2  0
  4  5  2  0
  5  3  2  0
  5  6  1  0
  6 13  1  0
  6  1  1  0
  8  7  1  0
 10  9  1  0
 11  8  1  0
 11 13  1  0
 13 15  2  0
 14  5  1  0
 14 11  1  0
M  END
$$$$

     RDKit          3D

 14 14  0  0  0  0  0  0  0  0999 V2000
   40.7420   33.4810   29.0090 C   0  0  0  0  0  0  0  0  0  0  0  0
   40.2130   35.2490   27.3120 C   0  0  0  0  0  0  0  0  0  0  0  0
   40.6460   36.3350   26.3780 N   0  0  0  0  0  0  0  0  0  0  0  0
   41.1530   34.4080   27.9490 N   0  0  0  0  0  0  0  0  0  0  0  0
   38.9970   35.2020   27.4610 O   0  0  0  0  0  0  0  0  0  0  0  0
   42.5930   34.5490   27.6320 C   0  0  0  0  0  0  0  0  0  0  0  0
   43.0530   36.3490   26.1600 C   0  0  0  0  0  0  0  0  0  0  0  0
   43.2280   38.8670   25.9080 O   0  0  0  0  0  0  0  0  0  0  0  0
   42.8690   33.7620   26.4720 O   0  0  0  0  0  0  0  0  0  0  0  0
   42.0070   38.5100   25.9200 C   0  0  0  0  0  0  0  0  0  0  0  0
   42.8060   36.0620   27.6700 C   0  0  0  0  0  0  0  0  0  0  0  0
   42.6470   37.3250   28.3300 O   0  0  0  0  0  0  0  0  0  0  0  0
   41.9390   37.2260   26.0630 C   0  0  0  0  0  0  0  0  0  0  0  0
   44.3300   36.8250   26.2760 O   0  0  0  0  0  0  0  0  0  0  0  0
  2  5  2  0
  2  4  1  0
  3  2  1  0
  4  1  1  0
  6  9  1  0
  6 11  1  0
  6  4  1  0
  7 14  1  0
  7 11  1  0
  8 10  1  0
 11 12  1  0
 13 10  1  0
 13  7  1  0
 13  3  1  0
M  END
$$$$

     RDKit          3D

 16 16  0  0  0  0  0  0  0  0999 V2000
   40.4650   35.2560   24.6310 C   0  0  0  0  0  0  0  0  0  0  0  0
   42.0940   34.7580   27.9120 N   0  0  0  0  0  0  0  0  0  0  0  0
   44.5500   36.0470   27.0260 C   0  0  0  0  0  0  0  0  0  0  0  0
   39.9810   34.8650   27.3890 C   0  0  0  0  0  0  0  0  0  0  0  0
   41.5680   34.4950   23.8900 C   0  0  0  0  0  0  0  0  0  0  0  0
   40.0400   36.6600   24.2360 C   0  0  0  0  0  0  0  0  0  0  0  0
   40.6610   33.4320   29.4080 C   0  0  0  0  0  0  0  0  0  0  0  0
   41.9450   35.4090   26.6780 C   0  0  0  0  0  0  0  0  0  0  0  0
   40.4660   36.8580   22.8670 O   0  0  0  0  0  0  0  0  0  0  0  0
   42.9260   38.0940   26.1410 C   0  0  0  0  0  0  0  0  0  0  0  0
   43.1960   36.3350   26.1820 S   0  0  0  0  0  0  0  0  0  0  0  0
   39.3070   34.4950   24.3270 N   0  0  0  0  0  0  0  0  0  0  0  0
   40.7220   35.2180   26.1580 C   0  0  0  0  0  0  0  0  0  0  0  0
   38.6210   36.6500   24.4230 O   0  0  0  0  0  0  0  0  0  0  0  0
   40.9000   34.3290   28.2560 N   0  0  0  0  0  0  0  0  0  0  0  0
   44.5950   36.7010   28.3470 O   0  0  0  0  0  0  0  0  0  0  0  0
  1  5  1  0
  2 15  1  0
  3 16  1  0
  4 15  1  0
  6 14  1  0
  6  1  1  0
  8 11  1  0
  8  2  1  0
  9  6  1  0
 11 10  1  0
 11  3  1  0
 12  1  1  0
 13  1  1  0
 13  8  1  0
 13  4  1  0
 15  7  1  0
M  END
$$$$

     RDKit          3D

 22 22  0  0  0  0  0  0  0  0999 V2000
   42.4400   37.4140   26.4390 O   0  0  0  0  0  0  0  0  0  0  0  0
   43.1280   38.0040   25.4720 C   0  0  0  0  0  0  0  0  0  0  0  0
   40.6990   35.1010   24.1570 O   0  0  0  0  0  0  0  0  0  0  0  0
   42.0930   36.0040   26.5310 C   0  0  0  0  0  0  0  0  0  0  0  0
   38.3670   36.3400   24.4490 S   0  0  0  0  0  0  0  0  0  0  0  0
   42.9190   35.3060   27.5380 C   0  0  0  0  0  0  0  0  0  0  0  0
   44.0800   36.3140   28.0710 O   0  0  0  0  0  0  0  0  0  0  0  0
   40.8130   35.9580   26.9890 O   0  0  0  0  0  0  0  0  0  0  0  0
   45.1640   37.0660   25.6070 O   0  0  0  0  0  0  0  0  0  0  0  0
   38.7490   33.8550   24.0270 O   0  0  0  0  0  0  0  0  0  0  0  0
   39.9590   33.5370   29.2490 C   0  0  0  0  0  0  0  0  0  0  0  0
   39.3090   34.3150   26.2680 O   0  0  0  0  0  0  0  0  0  0  0  0
   38.6110   37.9600   23.6860 C   0  0  0  0  0  0  0  0  0  0  0  0
   40.5920   34.4150   28.3950 C   0  0  0  0  0  0  0  0  0  0  0  0
   39.4650   37.6520   22.5100 C   0  0  0  0  0  0  0  0  0  0  0  0
   42.1700   34.3450   28.0950 C   0  0  0  0  0  0  0  0  0  0  0  0
   42.5170   33.0330   27.9480 O   0  0  0  0  0  0  0  0  0  0  0  0
   42.8880   38.9180   24.5160 C   0  0  0  0  0  0  0  0  0  0  0  0
   44.0570   37.0770   24.9930 C   0  0  0  0  0  0  0  0  0  0  0  0
   43.8000   36.5880   23.9890 O   0  0  0  0  0  0  0  0  0  0  0  0
   40.0140   34.9780   27.2630 C   0  0  0  0  0  0  0  0  0  0  0  0
   39.4420   34.9960   24.8590 S   0  0  0  0  0  0  0  0  0  0  0  0
  2  1  1  0
  3 22  1  0
  4  1  1  0
  4  8  1  0
  4  6  1  0
  5 22  1  0
  6  7  1  0
  6 16  1  0
  8 21  1  0
 10 22  1  0
 13  5  1  0
 14 11  1  0
 15 13  1  0
 16 17  1  0
 16 14  1  0
 18  2  2  0
 19  2  1  0
 19  9  1  0
 20 19  2  0
 21 12  1  0
 21 14  1  0
 22 12  1  0
M  END
$$$$

     RDKit          3D

 14 14  0  0  0  0  0  0  0  0999 V2000
   44.3110   34.8150   26.6180 C   0  0  0  0  0  0  0  0  0  0  0  0
   41.8540   37.3700   26.9510 O   0  0  0  0  0  0  0  0  0  0  0  0
   42.8120   35.7370   25.1160 C   0  0  0  0  0  0  0  0  0  0  0  0
   43.6110   35.8550   27.4200 C   0  0  0  0  0  0  0  0  0  0  0  0
   41.3970   34.6340   23.5610 O   0  0  0  0  0  0  0  0  0  0  0  0
   42.6430   36.5030   26.4220 C   0  0  0  0  0  0  0  0  0  0  0  0
   41.3350   34.4130   27.8670 C   0  0  0  0  0  0  0  0  0  0  0  0
   41.0670   33.4460   29.0530 C   0  0  0  0  0  0  0  0  0  0  0  0
   40.0140   34.9740   27.3100 C   0  0  0  0  0  0  0  0  0  0  0  0
   42.2200   33.8590   26.7550 N   0  0  0  0  0  0  0  0  0  0  0  0
   41.3380   38.0510   24.4140 O   0  0  0  0  0  0  0  0  0  0  0  0
   41.5840   35.6540   24.2110 C   0  0  0  0  0  0  0  0  0  0  0  0
   40.6750   36.8510   24.0330 C   0  0  0  0  0  0  0  0  0  0  0  0
   43.2410   34.3580   25.6790 C   0  0  0  0  0  0  0  0  0  0  0  0
  1  4  1  0
  3 12  1  0
  3 14  1  0
  3  6  1  0
  5 12  2  0
  6  2  1  0
  6  4  1  0
  7  8  1  0
  9  7  1  0
 10  7  1  0
 13 12  1  0
 13 11  1  0
 14  1  1  0
 14 10  1  0
M  END
$$$$

     RDKit          3D

 13 15  0  0  0  0  0  0  0  0999 V2000
   40.3180   35.8390   25.9510 C   0  0  0  0  0  0  0  0  0  0  0  0
   43.8330   34.8590   25.2140 O   0  0  0  0  0  0  0  0  0  0  0  0
   42.5600   35.4190   27.2930 C   0  0  0  0  0  0  0  0  0  0  0  0
   41.3280   34.9640   27.9440 C   0  0  0  0  0  0  0  0  0  0  0  0
   40.2870   34.7950   26.8740 N   0  0  0  0  0  0  0  0  0  0  0  0
   42.5880   34.8260   25.8470 C   0  0  0  0  0  0  0  0  0  0  0  0
   41.5660   33.4470   28.6980 S   0  0  0  0  0  0  0  0  0  0  0  0
   41.9040   37.6590   28.2990 O   0  0  0  0  0  0  0  0  0  0  0  0
   41.5080   35.7370   25.0100 C   0  0  0  0  0  0  0  0  0  0  0  0
   41.3390   36.9200   26.0550 C   0  0  0  0  0  0  0  0  0  0  0  0
   42.4070   36.9320   27.1450 C   0  0  0  0  0  0  0  0  0  0  0  0
   44.0980   33.8130   24.1890 C   0  0  0  0  0  0  0  0  0  0  0  0
   39.9820   33.2390   29.1320 C   0  0  0  0  0  0  0  0  0  0  0  0
  1 10  1  0
  1  5  1  0
  2  6  1  0
  3  4  1  0
  4  7  1  0
  5  4  1  0
  6  3  1  0
  7 13  1  0
  9  6  1  0
  9  1  1  0
  9 10  1  0
 10 11  1  0
 11  3  1  0
 11  8  1  0
 12  2  1  0
M  END
$$$$

     RDKit          3D

 14 14  0  0  0  0  0  0  0  0999 V2000
   39.6050   35.2930   24.9730 C   0  0  0  0  0  0  0  0  0  0  0  0
   43.6620   35.6250   26.9950 C   0  0  0  0  0  0  0  0  0  0  0  0
   40.4880   36.0530   25.9670 C   0  0  0  0  0  0  0  0  0  0  0  0
   41.5530   33.6090   29.0970 C   0  0  0  0  0  0  0  0  0  0  0  0
   39.3670   35.9150   23.6140 C   0  0  0  0  0  0  0  0  0  0  0  0
   41.5840   36.7810   25.3510 O   0  0  0  0  0  0  0  0  0  0  0  0
   41.7020   34.9590   28.4720 N   0  0  0  0  0  0  0  0  0  0  0  0
   42.8680   36.7970   26.2950 C   0  0  0  0  0  0  0  0  0  0  0  0
   41.1110   35.0510   27.0330 C   0  0  0  0  0  0  0  0  0  0  0  0
   40.1310   33.0580   29.1670 C   0  0  0  0  0  0  0  0  0  0  0  0
   45.0990   35.9030   27.1230 N   0  0  0  0  0  0  0  0  0  0  0  0
   43.1420   35.3300   28.4000 C   0  0  0  0  0  0  0  0  0  0  0  0
   40.2650   37.0230   23.4320 O   0  0  0  0  0  0  0  0  0  0  0  0
   38.9850   34.2430   25.2320 O   0  0  0  0  0  0  0  0  0  0  0  0
  1 14  2  0
  2 11  1  0
  2 12  1  0
  3  1  1  0
  3  9  1  0
  4 10  1  0
  5  1  1  0
  6  3  1  0
  6  8  1  0
  7  4  1  0
  8  2  1  0
  9  7  1  0
 12  7  1  0
 13  5  1  0
M  END
$$$$

     RDKit          3D

 17 16  0  0  0  0  0  0  0  0999 V2000
   40.7680   33.6670   27.7650 N   0  0  0  0  0  0  0  0  0  0  0  0
   42.8050   33.0720   19.1050 C   0  0  0  0  0  0  0  0  0  0  0  0
   43.1900   33.8070   21.7040 C   0  0  0  0  0  0  0  0  0  0  0  0
   41.6880   35.7520   25.7070 C   0  0  0  0  0  0  0  0  0  0  0  0
   39.4960   35.6960   24.6580 C   0  0  0  0  0  0  0  0  0  0  0  0
   42.3510   35.0790   28.8010 C   0  0  0  0  0  0  0  0  0  0  0  0
   40.7240   37.2430   27.5630 O   0  0  0  0  0  0  0  0  0  0  0  0
   40.6930   34.9260   22.2810 O   0  0  0  0  0  0  0  0  0  0  0  0
   38.9570   34.6540   25.5110 O   0  0  0  0  0  0  0  0  0  0  0  0
   41.4970   34.8890   23.3390 C   0  0  0  0  0  0  0  0  0  0  0  0
   40.6240   32.9590   29.0440 C   0  0  0  0  0  0  0  0  0  0  0  0
   41.0370   36.1270   27.0020 C   0  0  0  0  0  0  0  0  0  0  0  0
   41.9290   33.4340   20.5920 S   0  0  0  0  0  0  0  0  0  0  0  0
   41.0230   35.0080   28.0790 C   0  0  0  0  0  0  0  0  0  0  0  0
   39.2950   37.1940   24.8730 O   0  0  0  0  0  0  0  0  0  0  0  0
   42.9000   34.3960   23.1460 C   0  0  0  0  0  0  0  0  0  0  0  0
   40.8810   35.4580   24.4920 N   0  0  0  0  0  0  0  0  0  0  0  0
  1 14  1  0
  1 11  1  0
  2 13  1  0
  3 16  1  0
  4 12  1  0
  5 15  1  0
  5  9  1  0
  8 10  2  0
 10 17  1  0
 12  7  1  0
 12 14  1  0
 13  3  1  0
 14  6  1  0
 16 10  1  0
 17  5  1  0
 17  4  1  0
M  END
$$$$

     RDKit          3D

 12 11  0  0  0  0  0  0  0  0999 V2000
   44.4830   35.1990   26.3840 O   0  0  0  0  0  0  0  0  0  0  0  0
   43.2350   36.8690   24.3570 O   0  0  0  0  0  0  0  0  0  0  0  0
   40.6130   36.6150   24.7200 C   0  0  0  0  0  0  0  0  0  0  0  0
   42.7140   34.6990   23.9120 O   0  0  0  0  0  0  0  0  0  0  0  0
   43.1290   35.4630   27.0970 C   0  0  0  0  0  0  0  0  0  0  0  0
   39.0780   34.9040   25.4570 O   0  0  0  0  0  0  0  0  0  0  0  0
   41.9810   34.9640   26.3270 C   0  0  0  0  0  0  0  0  0  0  0  0
   39.4990   35.6440   24.2820 C   0  0  0  0  0  0  0  0  0  0  0  0
   43.4150   35.0340   28.5560 C   0  0  0  0  0  0  0  0  0  0  0  0
   42.6540   36.7980   27.1640 N   0  0  0  0  0  0  0  0  0  0  0  0
   42.1710   35.8030   24.6780 P   0  0  0  0  0  0  0  0  0  0  0  0
   38.3460   36.5230   23.8180 C   0  0  0  0  0  0  0  0  0  0  0  0
  1  5  1  0
  2 11  1  0
  5 10  1  0
  5  9  1  0
  7  5  1  0
  8 12  1  0
  8  3  1  0
  8  6  1  0
 11  4  2  0
 11  3  1  0
 11  7  1  0
M  END
$$$$

     RDKit          3D

 11 11  0  0  0  0  0  0  0  0999 V2000
   42.6550   35.5520   24.6920 C   0  0  0  0  0  0  0  0  0  0  0  0
   42.8800   36.1520   26.0030 N   0  0  0  0  0  0  0  0  0  0  0  0
   40.6720   34.7150   23.4250 O   0  0  0  0  0  0  0  0  0  0  0  0
   40.6290   35.0240   25.7640 C   0  0  0  0  0  0  0  0  0  0  0  0
   42.1750   34.8480   27.8250 C   0  0  0  0  0  0  0  0  0  0  0  0
   43.1420   34.2300   24.5760 O   0  0  0  0  0  0  0  0  0  0  0  0
   41.1730   35.5320   24.4600 C   0  0  0  0  0  0  0  0  0  0  0  0
   39.2170   35.2900   26.0150 O   0  0  0  0  0  0  0  0  0  0  0  0
   40.4120   33.4530   28.9000 C   0  0  0  0  0  0  0  0  0  0  0  0
   41.4180   34.0680   28.3420 C   0  0  0  0  0  0  0  0  0  0  0  0
   41.6660   35.7090   26.6950 C   0  0  0  0  0  0  0  0  0  0  0  0
  1  6  1  0
  1  2  1  0
  2 11  1  0
  4  8  1  0
  4 11  1  0
  5 10  1  0
  7  3  1  0
  7  1  1  0
  7  4  1  0
 10  9  1  0
 11  5  1  0
M  END
$$$$

     RDKit          3D

 24 24  0  0  0  0  0  0  0  0999 V2000
   39.0920   33.9960   24.7390 O   0  0  0  0  0  0  0  0  0  0  0  0
   34.8680   38.0850   23.3470 O   0  0  0  0  0  0  0  0  0  0  0  0
   44.9890   35.7790   27.4160 S   0  0  0  0  0  0  0  0  0  0  0  0
   42.8240   34.4130   27.9560 C   0  0  0  0  0  0  0  0  0  0  0  0
   39.9310   34.7020   26.9260 C   0  0  0  0  0  0  0  0  0  0  0  0
   34.1680   37.4370   22.6060 N   0  0  0  0  0  0  0  0  0  0  0  0
   37.1630   36.8010   23.0030 C   0  0  0  0  0  0  0  0  0  0  0  0
   38.0420   35.9900   23.5220 N   0  0  0  0  0  0  0  0  0  0  0  0
   39.5750   34.9780   25.4530 N   0  0  0  0  0  0  0  0  0  0  0  0
   44.3480   35.5640   29.1270 C   0  0  0  0  0  0  0  0  0  0  0  0
   41.4970   36.0410   25.4560 C   0  0  0  0  0  0  0  0  0  0  0  0
   43.8520   34.7270   26.8290 C   0  0  0  0  0  0  0  0  0  0  0  0
   42.1860   34.7420   25.1250 C   0  0  0  0  0  0  0  0  0  0  0  0
   36.0640   36.1660   22.4660 C   0  0  0  0  0  0  0  0  0  0  0  0
   39.0500   36.7810   23.9880 C   0  0  0  0  0  0  0  0  0  0  0  0
   40.0450   36.2520   25.0090 C   0  0  0  0  0  0  0  0  0  0  0  0
   41.1890   33.9810   27.8880 C   0  0  0  0  0  0  0  0  0  0  0  0
   39.4450   38.3170   23.5230 S   0  0  0  0  0  0  0  0  0  0  0  0
   37.2110   38.3080   23.0890 C   0  0  0  0  0  0  0  0  0  0  0  0
   34.7820   36.1050   22.4040 C   0  0  0  0  0  0  0  0  0  0  0  0
   39.1380   35.1540   27.5980 O   0  0  0  0  0  0  0  0  0  0  0  0
   40.8190   33.3490   29.2370 C   0  0  0  0  0  0  0  0  0  0  0  0
   42.9600   35.4120   29.0590 N   0  0  0  0  0  0  0  0  0  0  0  0
   41.8490   37.0770   26.3840 C   0  0  0  0  0  0  0  0  0  0  0  0
  1  9  1  0
  3 10  1  0
  4 17  1  0
  4 23  1  0
  5 21  2  0
  5 17  1  0
  6  2  1  0
  7 19  1  0
  7  8  1  0
  8 15  1  0
  9  5  1  0
 11 24  1  0
 12  3  1  0
 12  4  1  0
 13 11  1  0
 14  7  1  0
 16 15  1  0
 16  9  1  0
 16 11  1  0
 17 22  1  0
 18 15  2  0
 20 14  1  0
 20  6  1  0
 23 10  1  0
M  END
$$$$

     RDKit          3D

 15 16  0  0  0  0  0  0  0  0999 V2000
   44.1400   37.7450   24.6650 C   0  0  0  0  0  0  0  0  0  0  0  0
   39.5470   35.0510   24.0290 S   0  0  0  0  0  0  0  0  0  0  0  0
   40.3080   32.8730   29.4850 Cl  0  0  0  0  0  0  0  0  0  0  0  0
   42.1830   36.4460   25.1810 C   0  0  0  0  0  0  0  0  0  0  0  0
   42.4710   35.3910   27.3150 N   0  0  0  0  0  0  0  0  0  0  0  0
   43.1000   37.4490   25.5200 C   0  0  0  0  0  0  0  0  0  0  0  0
   42.1220   34.5370   28.2440 C   0  0  0  0  0  0  0  0  0  0  0  0
   43.0870   36.1960   23.0150 C   0  0  0  0  0  0  0  0  0  0  0  0
   41.6060   35.7350   26.3350 C   0  0  0  0  0  0  0  0  0  0  0  0
   40.2950   35.4520   26.4450 N   0  0  0  0  0  0  0  0  0  0  0  0
   40.7870   34.0790   28.3270 C   0  0  0  0  0  0  0  0  0  0  0  0
   41.8680   35.9380   23.8540 C   0  0  0  0  0  0  0  0  0  0  0  0
   39.8690   34.6430   27.4140 C   0  0  0  0  0  0  0  0  0  0  0  0
   44.0830   37.1230   23.3930 C   0  0  0  0  0  0  0  0  0  0  0  0
   39.3670   36.0200   25.5210 C   0  0  0  0  0  0  0  0  0  0  0  0
  1  6  2  0
  2 15  1  0
  4 12  1  0
  4  6  1  0
  4  9  1  0
  5  7  2  0
  7 11  1  0
  8 14  2  0
  8 12  1  0
  9 10  1  0
  9  5  1  0
 10 13  1  0
 11  3  1  0
 13 11  2  0
 14  1  1  0
 15 10  1  0
M  END
$$$$

     RDKit          3D

 23 25  0  0  0  0  0  0  0  0999 V2000
   40.4220   32.5950   29.0130 C   0  0  0  0  0  0  0  0  0  0  0  0
   40.0970   34.3290   26.6350 N   0  0  0  0  0  0  0  0  0  0  0  0
   39.3490   34.8980   25.5380 C   0  0  0  0  0  0  0  0  0  0  0  0
   43.1650   35.5740   28.4270 C   0  0  0  0  0  0  0  0  0  0  0  0
   41.4390   33.7980   29.0260 C   0  0  0  0  0  0  0  0  0  0  0  0
   42.8940   35.2570   25.2450 C   0  0  0  0  0  0  0  0  0  0  0  0
   40.9920   35.2260   27.1110 C   0  0  0  0  0  0  0  0  0  0  0  0
   42.0470   34.7170   26.3910 C   0  0  0  0  0  0  0  0  0  0  0  0
   40.2040   35.4940   24.5610 C   0  0  0  0  0  0  0  0  0  0  0  0
   39.6170   36.8620   24.4440 C   0  0  0  0  0  0  0  0  0  0  0  0
   42.1850   34.5400   27.8600 C   0  0  0  0  0  0  0  0  0  0  0  0
   37.6570   34.8560   22.4590 O   0  0  0  0  0  0  0  0  0  0  0  0
   38.2570   34.3310   24.6090 O   0  0  0  0  0  0  0  0  0  0  0  0
   40.7530   36.4510   27.3850 O   0  0  0  0  0  0  0  0  0  0  0  0
   38.1400   38.7020   22.5160 S   0  0  0  0  0  0  0  0  0  0  0  0
   40.3910   37.2540   23.3990 O   0  0  0  0  0  0  0  0  0  0  0  0
   38.5220   34.7830   23.3640 C   0  0  0  0  0  0  0  0  0  0  0  0
   39.6740   39.1690   22.4460 C   0  0  0  0  0  0  0  0  0  0  0  0
   39.7080   34.9030   23.3720 O   0  0  0  0  0  0  0  0  0  0  0  0
   37.4230   38.3510   21.2500 C   0  0  0  0  0  0  0  0  0  0  0  0
   40.7140   38.5810   23.3730 C   0  0  0  0  0  0  0  0  0  0  0  0
   38.0830   37.5370   24.0590 S   0  0  0  0  0  0  0  0  0  0  0  0
   37.1100   39.8020   22.9810 C   0  0  0  0  0  0  0  0  0  0  0  0
  1  5  1  0
  2  7  1  0
  3  2  1  0
  7 14  1  0
  7 11  1  0
  8  6  1  0
  8  7  1  0
  8 11  1  0
  9 19  1  0
  9  3  1  0
 10 16  1  0
 10  9  1  0
 11  4  1  0
 11  5  1  0
 12 17  2  0
 13  3  1  0
 15 23  1  0
 15 22  1  0
 17 19  1  0
 17 13  1  0
 18 15  1  0
 18 21  1  0
 20 15  1  0
 21 16  1  0
 22 10  1  0
M  END
$$$$

     RDKit          3D

  8  8  0  0  0  0  0  0  0  0999 V2000
   40.3240   34.7220   27.9010 O   0  0  0  0  0  0  0  0  0  0  0  0
   42.7700   34.7880   26.4210 N   0  0  0  0  0  0  0  0  0  0  0  0
   41.9860   34.9550   25.0580 C   0  0  0  0  0  0  0  0  0  0  0  0
   42.3730   37.0740   26.7380 O   0  0  0  0  0  0  0  0  0  0  0  0
   40.5750   34.8200   25.5830 C   0  0  0  0  0  0  0  0  0  0  0  0
   42.1660   35.7490   27.3220 C   0  0  0  0  0  0  0  0  0  0  0  0
   42.6120   33.9160   24.0830 C   0  0  0  0  0  0  0  0  0  0  0  0
   40.7210   35.6030   26.8980 C   0  0  0  0  0  0  0  0  0  0  0  0
  2  6  1  0
  3  7  1  0
  3  5  1  0
  3  2  1  0
  5  8  1  0
  6  4  1  0
  8  6  1  0
  8  1  1  0
M  END
$$$$

     RDKit          3D

 25 28  0  0  0  0  0  0  0  0999 V2000
   38.2260   39.6580   22.6630 N   0  0  0  0  0  0  0  0  0  0  0  0
   40.3650   35.4710   24.3150 C   0  0  0  0  0  0  0  0  0  0  0  0
   42.2940   33.9040   29.1070 N   0  0  0  0  0  0  0  0  0  0  0  0
   38.8570   35.2410   24.3930 C   0  0  0  0  0  0  0  0  0  0  0  0
   39.8040   33.6840   28.2180 N   0  0  0  0  0  0  0  0  0  0  0  0
   35.9700   40.1700   21.9150 C   0  0  0  0  0  0  0  0  0  0  0  0
   42.1330   37.1130   28.6070 O   0  0  0  0  0  0  0  0  0  0  0  0
   40.5980   36.1100   26.4120 O   0  0  0  0  0  0  0  0  0  0  0  0
   40.8880   35.0120   25.6770 C   0  0  0  0  0  0  0  0  0  0  0  0
   43.6080   35.5780   28.1350 N   0  0  0  0  0  0  0  0  0  0  0  0
   37.9140   38.6120   23.3880 C   0  0  0  0  0  0  0  0  0  0  0  0
   43.6110   34.1430   28.4830 C   0  0  0  0  0  0  0  0  0  0  0  0
   36.8230   38.0180   23.9190 N   0  0  0  0  0  0  0  0  0  0  0  0
   41.1000   37.9080   22.9130 O   0  0  0  0  0  0  0  0  0  0  0  0
   35.4670   38.3490   23.5240 C   0  0  0  0  0  0  0  0  0  0  0  0
   39.0130   37.8160   23.7560 N   0  0  0  0  0  0  0  0  0  0  0  0
   39.8760   38.3320   23.3420 C   0  0  0  0  0  0  0  0  0  0  0  0
   38.6280   34.1570   24.2060 O   0  0  0  0  0  0  0  0  0  0  0  0
   41.1580   34.0970   28.1120 C   0  0  0  0  0  0  0  0  0  0  0  0
   35.2030   39.2510   22.5330 N   0  0  0  0  0  0  0  0  0  0  0  0
   39.3960   33.1230   29.4540 C   0  0  0  0  0  0  0  0  0  0  0  0
   37.2450   40.4450   22.0620 C   0  0  0  0  0  0  0  0  0  0  0  0
   39.2940   36.5170   24.3330 C   0  0  0  0  0  0  0  0  0  0  0  0
   42.4040   36.1800   27.9040 C   0  0  0  0  0  0  0  0  0  0  0  0
   41.4380   35.3010   27.1910 C   0  0  0  0  0  0  0  0  0  0  0  0
  1 11  2  0
  2 23  1  0
  2  4  1  0
  2  9  1  0
  4 18  1  0
  5 21  1  0
  6 22  1  0
  6 20  2  0
  9  8  1  0
  9 25  1  0
 10 12  1  0
 11 16  1  0
 11 13  1  0
 12  3  1  0
 14 17  1  0
 15 13  2  0
 17 16  1  0
 19  5  1  0
 19  3  2  0
 20 15  1  0
 22  1  1  0
 23 16  1  0
 23  4  1  0
 24 10  1  0
 24  7  2  0
 25  8  1  0
 25 24  1  0
 25 19  1  0
M  END
$$$$

     RDKit          3D

 13 12  0  0  0  0  0  0  0  0999 V2000
   42.3410   34.2940   28.0740 C   0  0  0  0  0  0  0  0  0  0  0  0
   44.6190   35.6660   29.4060 N   0  0  0  0  0  0  0  0  0  0  0  0
   38.9440   35.6510   24.6560 C   0  0  0  0  0  0  0  0  0  0  0  0
   41.1040   34.5140   28.8360 N   0  0  0  0  0  0  0  0  0  0  0  0
   43.0090   35.5310   27.4830 C   0  0  0  0  0  0  0  0  0  0  0  0
   40.2210   36.4320   24.9560 C   0  0  0  0  0  0  0  0  0  0  0  0
   40.8770   37.0050   23.7040 C   0  0  0  0  0  0  0  0  0  0  0  0
   41.1560   35.5680   25.8330 C   0  0  0  0  0  0  0  0  0  0  0  0
   43.6680   36.3870   28.5660 C   0  0  0  0  0  0  0  0  0  0  0  0
   42.0250   36.4070   26.7310 C   0  0  0  0  0  0  0  0  0  0  0  0
   42.0460   34.8700   24.9860 O   0  0  0  0  0  0  0  0  0  0  0  0
   37.8630   36.5770   24.4290 O   0  0  0  0  0  0  0  0  0  0  0  0
   40.2070   33.3670   28.9340 C   0  0  0  0  0  0  0  0  0  0  0  0
  1  4  1  0
  3  6  1  0
  4 13  1  0
  5 10  1  0
  5  1  1  0
  5  9  1  0
  6  7  1  0
  6  8  1  0
  8 11  1  0
  8 10  1  0
  9  2  1  0
 12  3  1  0
M  END
$$$$

     RDKit          3D

  8  8  0  0  0  0  0  0  0  0999 V2000
   42.0030   34.2880   27.8960 N   0  0  0  0  0  0  0  0  0  0  0  0
   42.6560   35.1500   26.9290 C   0  0  0  0  0  0  0  0  0  0  0  0
   39.6460   34.9570   27.5540 C   0  0  0  0  0  0  0  0  0  0  0  0
   39.9630   35.3800   26.1120 C   0  0  0  0  0  0  0  0  0  0  0  0
   40.2240   33.4050   29.3960 C   0  0  0  0  0  0  0  0  0  0  0  0
   40.5990   33.8790   27.9860 C   0  0  0  0  0  0  0  0  0  0  0  0
   42.0940   36.5310   26.8040 C   0  0  0  0  0  0  0  0  0  0  0  0
   40.7850   36.6160   26.1050 N   0  0  0  0  0  0  0  0  0  0  0  0
  1  6  1  0
  2  1  1  0
  3  6  1  0
  4  3  1  0
  6  5  1  0
  7  2  1  0
  8  4  1  0
  8  7  1  0
M  END
$$$$
