
     RDKit          3D

 14 17  0  0  0  0  0  0  0  0999 V2000
   42.1100   38.8750   31.1860 C   0  0  0  0  0  0  0  0  0  0  0  0
   42.6660   40.3740   33.8770 O   0  0  0  0  0  0  0  0  0  0  0  0
   41.9770   38.3920   32.6260 C   0  0  0  0  0  0  0  0  0  0  0  0
   43.3050   39.7000   30.7550 C   0  0  0  0  0  0  0  0  0  0  0  0
   42.7320   38.9420   33.8830 C   0  0  0  0  0  0  0  0  0  0  0  0
   41.2560   39.6190   32.1590 C   0  0  0  0  0  0  0  0  0  0  0  0
   41.4270   36.3880   34.1120 N   0  0  0  0  0  0  0  0  0  0  0  0
   43.3570   40.9480   31.6690 C   0  0  0  0  0  0  0  0  0  0  0  0
   42.1450   40.7910   32.5840 C   0  0  0  0  0  0  0  0  0  0  0  0
   41.1970   37.1280   32.9190 C   0  0  0  0  0  0  0  0  0  0  0  0
   43.4910   39.9310   29.3860 C   0  0  0  0  0  0  0  0  0  0  0  0
   41.6310   35.6760   32.9310 C   0  0  0  0  0  0  0  0  0  0  0  0
   40.9000   38.2260   29.0540 N   0  0  0  0  0  0  0  0  0  0  0  0
   41.4620   38.2600   30.0490 N   0  0  0  0  0  0  0  0  0  0  0  0
  1 14  1  0
  1  6  1  0
  1  3  1  0
  2  5  1  0
  3 10  1  0
  3  5  1  0
  4 11  1  0
  4  1  1  0
  4  8  1  0
  6  9  1  0
  6  3  1  0
  8  9  1  0
  9  2  1  0
 10 12  1  0
 10  7  1  0
 12  7  1  0
 13 14  1  0
M  END
$$$$

     RDKit          3D

 12 11  0  0  0  0  0  0  0  0999 V2000
   42.2740   37.4280   32.9350 N   0  0  0  0  0  0  0  0  0  0  0  0
   41.4570   37.2810   31.9600 N   0  0  0  0  0  0  0  0  0  0  0  0
   42.5090   38.7760   33.4160 C   0  0  0  0  0  0  0  0  0  0  0  0
   42.4710   36.3580   33.8610 C   0  0  0  0  0  0  0  0  0  0  0  0
   41.9120   39.8660   33.2050 C   0  0  0  0  0  0  0  0  0  0  0  0
   44.5710   37.9980   32.4270 O   0  0  0  0  0  0  0  0  0  0  0  0
   43.2550   41.0290   34.6430 O   0  0  0  0  0  0  0  0  0  0  0  0
   40.8010   37.5190   30.9590 C   0  0  0  0  0  0  0  0  0  0  0  0
   41.9140   40.1220   31.8850 O   0  0  0  0  0  0  0  0  0  0  0  0
   43.9640   39.0400   33.3990 C   0  0  0  0  0  0  0  0  0  0  0  0
   44.1020   40.3620   34.2470 C   0  0  0  0  0  0  0  0  0  0  0  0
   41.3570   35.3330   33.7410 C   0  0  0  0  0  0  0  0  0  0  0  0
  1  3  1  0
  1  4  1  0
  2  1  1  0
  3  5  1  0
  8  2  3  0
  9  5  1  0
 10  6  1  0
 10  3  1  0
 10 11  1  0
 11  7  2  0
 12  4  1  0
M  END
$$$$

     RDKit          3D

 12 11  0  0  0  0  0  0  0  0999 V2000
   43.5620   38.6020   34.2190 C   0  0  0  0  0  0  0  0  0  0  0  0
   41.1410   39.1500   30.3250 S   0  0  0  0  0  0  0  0  0  0  0  0
   42.5240   36.3660   34.0740 N   0  0  0  0  0  0  0  0  0  0  0  0
   40.3710   40.6760   30.3160 C   0  0  0  0  0  0  0  0  0  0  0  0
   44.7520   38.1940   34.5290 O   0  0  0  0  0  0  0  0  0  0  0  0
   42.3650   39.0340   29.5770 O   0  0  0  0  0  0  0  0  0  0  0  0
   42.8830   39.1660   35.0450 O   0  0  0  0  0  0  0  0  0  0  0  0
   40.4950   38.3890   29.5450 O   0  0  0  0  0  0  0  0  0  0  0  0
   41.3300   37.4190   32.1420 C   0  0  0  0  0  0  0  0  0  0  0  0
   43.1010   38.4210   32.9130 C   0  0  0  0  0  0  0  0  0  0  0  0
   41.2450   38.6700   31.7280 O   0  0  0  0  0  0  0  0  0  0  0  0
   41.7370   37.3070   33.5410 C   0  0  0  0  0  0  0  0  0  0  0  0
  1  5  2  0
  1  7  1  0
  2 11  1  0
  4  2  1  0
  6  2  1  0
  8  2  1  0
  9 12  1  0
 10 12  1  0
 10  1  1  0
 11  9  1  0
 12  3  1  0
M  END
$$$$

     RDKit          3D

 10  9  0  0  0  0  0  0  0  0999 V2000
   42.4680   36.6910   33.7870 N   0  0  0  0  0  0  0  0  0  0  0  0
   43.0360   39.6110   31.8100 C   0  0  0  0  0  0  0  0  0  0  0  0
   40.3690   37.4500   30.9560 O   0  0  0  0  0  0  0  0  0  0  0  0
   41.9430   41.4390   30.3660 C   0  0  0  0  0  0  0  0  0  0  0  0
   40.1240   36.0190   33.4770 C   0  0  0  0  0  0  0  0  0  0  0  0
   40.2680   37.5470   33.4800 C   0  0  0  0  0  0  0  0  0  0  0  0
   41.0970   38.6100   30.7770 C   0  0  0  0  0  0  0  0  0  0  0  0
   41.7160   37.8600   33.1130 C   0  0  0  0  0  0  0  0  0  0  0  0
   41.6380   39.0940   32.1150 C   0  0  0  0  0  0  0  0  0  0  0  0
   43.1240   40.4900   30.5360 C   0  0  0  0  0  0  0  0  0  0  0  0
  2  9  1  0
  4 10  1  0
  5  6  1  0
  7  3  1  0
  8  6  1  0
  8  1  1  0
  9  7  1  0
  9  8  1  0
 10  2  1  0
M  END
$$$$

     RDKit          3D

 11 11  0  0  0  0  0  0  0  0999 V2000
   43.3730   39.1570   31.0990 O   0  0  0  0  0  0  0  0  0  0  0  0
   42.3100   39.1560   32.0540 C   0  0  0  0  0  0  0  0  0  0  0  0
   43.1680   36.9520   34.5730 O   0  0  0  0  0  0  0  0  0  0  0  0
   40.6080   35.7700   33.0600 C   0  0  0  0  0  0  0  0  0  0  0  0
   42.8530   38.9980   33.5040 C   0  0  0  0  0  0  0  0  0  0  0  0
   41.4950   37.9650   31.7720 C   0  0  0  0  0  0  0  0  0  0  0  0
   41.4320   37.0890   32.8890 C   0  0  0  0  0  0  0  0  0  0  0  0
   40.9200   37.8440   30.6600 O   0  0  0  0  0  0  0  0  0  0  0  0
   44.3520   38.8370   33.4900 C   0  0  0  0  0  0  0  0  0  0  0  0
   42.5130   40.2100   34.3980 C   0  0  0  0  0  0  0  0  0  0  0  0
   42.1390   37.7670   34.0530 C   0  0  0  0  0  0  0  0  0  0  0  0
  2  1  1  0
  2  5  1  0
  5 11  1  0
  5 10  1  0
  6  2  1  0
  6  7  1  0
  7  4  1  0
  7 11  1  0
  8  6  2  0
  9  5  1  0
 11  3  1  0
M  END
$$$$

     RDKit          3D

 11 10  0  0  0  0  0  0  0  0999 V2000
   40.5660   38.8910   34.2050 O   0  0  0  0  0  0  0  0  0  0  0  0
   44.9670   37.8140   34.2490 C   0  0  0  0  0  0  0  0  0  0  0  0
   43.9510   39.3920   32.4040 C   0  0  0  0  0  0  0  0  0  0  0  0
   42.5480   39.6220   33.0510 C   0  0  0  0  0  0  0  0  0  0  0  0
   43.8380   38.7760   35.1700 S   0  0  0  0  0  0  0  0  0  0  0  0
   45.0030   39.9800   35.6550 C   0  0  0  0  0  0  0  0  0  0  0  0
   40.3630   38.0290   31.5070 C   0  0  0  0  0  0  0  0  0  0  0  0
   40.6760   36.1350   33.1820 C   0  0  0  0  0  0  0  0  0  0  0  0
   41.3300   37.3680   32.5250 C   0  0  0  0  0  0  0  0  0  0  0  0
   44.7870   38.1590   32.8060 N   0  0  0  0  0  0  0  0  0  0  0  0
   41.7800   38.3810   33.6130 C   0  0  0  0  0  0  0  0  0  0  0  0
  2  5  1  0
  3 10  1  0
  3  4  1  0
  4 11  1  0
  5  6  1  0
  7  9  1  0
  9  8  1  0
  9 11  1  0
 10  2  1  0
 11  1  1  0
M  END
$$$$

     RDKit          3D

  9  8  0  0  0  0  0  0  0  0999 V2000
   44.3820   39.0350   32.6840 C   0  0  0  0  0  0  0  0  0  0  0  0
   41.5960   38.5920   31.8360 C   0  0  0  0  0  0  0  0  0  0  0  0
   41.0630   37.6430   31.2260 O   0  0  0  0  0  0  0  0  0  0  0  0
   43.2530   39.1940   33.7080 C   0  0  0  0  0  0  0  0  0  0  0  0
   41.7760   39.7250   31.2940 O   0  0  0  0  0  0  0  0  0  0  0  0
   41.1340   35.8960   33.3360 C   0  0  0  0  0  0  0  0  0  0  0  0
   41.9520   38.4460   33.3030 C   0  0  0  0  0  0  0  0  0  0  0  0
   43.4210   36.6030   33.8860 N   0  0  0  0  0  0  0  0  0  0  0  0
   42.0390   37.0090   33.8790 C   0  0  0  0  0  0  0  0  0  0  0  0
  1  4  1  0
  2  7  1  0
  3  2  2  0
  5  2  1  0
  7  4  1  0
  7  9  1  0
  9  6  1  0
  9  8  1  0
M  END
$$$$

     RDKit          3D

  8  8  0  0  0  0  0  0  0  0999 V2000
   41.3990   39.4050   30.1760 C   0  0  0  0  0  0  0  0  0  0  0  0
   41.6370   37.4470   32.0320 O   0  0  0  0  0  0  0  0  0  0  0  0
   43.9570   39.1520   30.4750 C   0  0  0  0  0  0  0  0  0  0  0  0
   42.2160   38.5120   32.0140 C   0  0  0  0  0  0  0  0  0  0  0  0
   41.4010   39.5070   31.6850 O   0  0  0  0  0  0  0  0  0  0  0  0
   41.1670   38.0250   29.7290 N   0  0  0  0  0  0  0  0  0  0  0  0
   42.8290   39.8540   29.6630 C   0  0  0  0  0  0  0  0  0  0  0  0
   43.5040   38.9000   31.8800 N   0  0  0  0  0  0  0  0  0  0  0  0
  1  6  1  0
  1  5  1  0
  3  8  1  0
  4  2  2  0
  5  4  1  0
  7  1  1  0
  7  3  1  0
  8  4  1  0
M  END
$$$$

     RDKit          3D

 14 13  0  0  0  0  0  0  0  0999 V2000
   41.5600   38.2310   32.7600 C   0  0  0  0  0  0  0  0  0  0  0  0
   42.9740   39.5230   34.8600 O   0  0  0  0  0  0  0  0  0  0  0  0
   41.3220   37.3880   33.9520 N   0  0  0  0  0  0  0  0  0  0  0  0
   41.6920   35.9670   33.6900 C   0  0  0  0  0  0  0  0  0  0  0  0
   40.5380   37.9290   31.6580 C   0  0  0  0  0  0  0  0  0  0  0  0
   42.0610   41.3160   29.0460 O   0  0  0  0  0  0  0  0  0  0  0  0
   42.6770   40.0110   31.5060 S   0  0  0  0  0  0  0  0  0  0  0  0
   43.2370   39.0900   33.7330 C   0  0  0  0  0  0  0  0  0  0  0  0
   43.9540   37.9350   33.5090 O   0  0  0  0  0  0  0  0  0  0  0  0
   41.9460   39.5990   32.9940 C   0  0  0  0  0  0  0  0  0  0  0  0
   41.8770   40.1070   29.1690 C   0  0  0  0  0  0  0  0  0  0  0  0
   41.7580   39.2250   30.1950 C   0  0  0  0  0  0  0  0  0  0  0  0
   40.4370   39.0140   30.7250 C   0  0  0  0  0  0  0  0  0  0  0  0
   41.8260   39.3820   28.4280 O   0  0  0  0  0  0  0  0  0  0  0  0
  1  5  1  0
  1 10  1  0
  1  3  1  0
  4  3  1  0
  6 11  1  0
  8  2  1  0
  9  8  2  0
 10  7  1  0
 10  8  1  0
 11 12  1  0
 12 13  1  0
 13  5  1  0
 14 11  2  0
M  END
$$$$

     RDKit          3D

 13 13  0  0  0  0  0  0  0  0999 V2000
   41.2330   39.0350   30.6530 C   0  0  0  0  0  0  0  0  0  0  0  0
   42.8990   39.0670   33.9120 P   0  0  0  0  0  0  0  0  0  0  0  0
   41.4790   39.6670   29.2840 C   0  0  0  0  0  0  0  0  0  0  0  0
   43.0480   37.8260   34.6660 O   0  0  0  0  0  0  0  0  0  0  0  0
   41.4280   37.7170   32.4560 C   0  0  0  0  0  0  0  0  0  0  0  0
   42.6210   38.6210   32.4250 C   0  0  0  0  0  0  0  0  0  0  0  0
   42.3940   39.4940   31.3340 O   0  0  0  0  0  0  0  0  0  0  0  0
   41.1580   37.7010   30.9580 C   0  0  0  0  0  0  0  0  0  0  0  0
   41.1030   38.8510   28.1450 O   0  0  0  0  0  0  0  0  0  0  0  0
   41.4570   36.4300   33.1600 C   0  0  0  0  0  0  0  0  0  0  0  0
   40.8300   36.6490   30.5260 O   0  0  0  0  0  0  0  0  0  0  0  0
   44.3000   39.7440   33.5450 O   0  0  0  0  0  0  0  0  0  0  0  0
   41.8830   40.0350   34.3810 O   0  0  0  0  0  0  0  0  0  0  0  0
  1  3  1  0
  1  8  1  0
  1  7  1  0
  2 13  1  0
  2  4  1  0
  5 10  1  0
  6  5  1  0
  6  2  1  0
  7  6  1  0
  8  5  1  0
  9  3  1  0
 11  8  2  0
 12  2  2  0
M  END
$$$$

     RDKit          3D

 15 15  0  0  0  0  0  0  0  0999 V2000
   43.1520   39.9880   33.2090 C   0  0  0  0  0  0  0  0  0  0  0  0
   42.3710   40.9620   29.1370 O   0  0  0  0  0  0  0  0  0  0  0  0
   42.1130   39.1540   31.3250 N   0  0  0  0  0  0  0  0  0  0  0  0
   40.2480   36.5950   32.9540 C   0  0  0  0  0  0  0  0  0  0  0  0
   41.6070   38.4540   32.2680 C   0  0  0  0  0  0  0  0  0  0  0  0
   40.9470   37.5240   32.0510 N   0  0  0  0  0  0  0  0  0  0  0  0
   41.0970   39.3310   27.4240 S   0  0  0  0  0  0  0  0  0  0  0  0
   43.2280   39.9420   31.7100 N   0  0  0  0  0  0  0  0  0  0  0  0
   41.8160   38.6310   29.9130 C   0  0  0  0  0  0  0  0  0  0  0  0
   42.1980   38.7770   33.5860 C   0  0  0  0  0  0  0  0  0  0  0  0
   43.4020   41.3150   31.2200 C   0  0  0  0  0  0  0  0  0  0  0  0
   40.9280   37.4890   29.4620 O   0  0  0  0  0  0  0  0  0  0  0  0
   41.4740   39.9090   29.1310 C   0  0  0  0  0  0  0  0  0  0  0  0
   41.1640   39.2630   34.4140 O   0  0  0  0  0  0  0  0  0  0  0  0
   42.9940   37.5950   34.1920 C   0  0  0  0  0  0  0  0  0  0  0  0
  1 10  1  0
  3  8  1  0
  3  5  1  0
  5  6  1  0
  5 10  1  0
  6  4  1  0
  8  1  1  0
  9 12  1  0
  9  3  1  0
 10 15  1  0
 10 14  1  0
 11  8  1  0
 13  7  1  0
 13  2  1  0
 13  9  1  0
M  END
$$$$

     RDKit          3D

  8  7  0  0  0  0  0  0  0  0999 V2000
   41.9960   37.5340   31.8030 N   0  0  0  0  0  0  0  0  0  0  0  0
   42.7300   38.0850   34.2100 C   0  0  0  0  0  0  0  0  0  0  0  0
   41.9800   37.1810   33.2580 C   0  0  0  0  0  0  0  0  0  0  0  0
   41.8470   39.7100   32.4160 O   0  0  0  0  0  0  0  0  0  0  0  0
   42.1760   39.2410   34.5950 O   0  0  0  0  0  0  0  0  0  0  0  0
   41.4230   38.8450   31.3910 C   0  0  0  0  0  0  0  0  0  0  0  0
   41.4700   35.8070   33.4210 C   0  0  0  0  0  0  0  0  0  0  0  0
   43.6180   37.5430   35.0980 O   0  0  0  0  0  0  0  0  0  0  0  0
  1  3  1  0
  2  5  2  0
  2  8  1  0
  3  7  1  0
  3  2  1  0
  6  1  1  0
  6  4  1  0
M  END
$$$$

     RDKit          3D

 18 18  0  0  0  0  0  0  0  0999 V2000
   42.5650   39.8520   34.9120 O   0  0  0  0  0  0  0  0  0  0  0  0
   42.8840   40.2660   33.7340 C   0  0  0  0  0  0  0  0  0  0  0  0
   43.7190   41.0240   33.5660 N   0  0  0  0  0  0  0  0  0  0  0  0
   38.3030   41.4450   28.9350 O   0  0  0  0  0  0  0  0  0  0  0  0
   40.6830   37.4120   29.8360 O   0  0  0  0  0  0  0  0  0  0  0  0
   40.4510   41.9950   29.8210 C   0  0  0  0  0  0  0  0  0  0  0  0
   41.1490   40.0120   30.3970 C   0  0  0  0  0  0  0  0  0  0  0  0
   41.7340   36.8290   33.6320 C   0  0  0  0  0  0  0  0  0  0  0  0
   41.2550   35.6810   33.3910 C   0  0  0  0  0  0  0  0  0  0  0  0
   40.4340   40.6340   29.4700 O   0  0  0  0  0  0  0  0  0  0  0  0
   42.3840   37.3100   32.3660 N   0  0  0  0  0  0  0  0  0  0  0  0
   42.1350   39.8030   32.5360 C   0  0  0  0  0  0  0  0  0  0  0  0
   41.8820   42.5630   29.7280 C   0  0  0  0  0  0  0  0  0  0  0  0
   41.4820   43.6170   30.3870 O   0  0  0  0  0  0  0  0  0  0  0  0
   39.2230   42.6130   29.2810 C   0  0  0  0  0  0  0  0  0  0  0  0
   41.3410   38.5900   30.4060 C   0  0  0  0  0  0  0  0  0  0  0  0
   41.7720   38.5730   31.8840 C   0  0  0  0  0  0  0  0  0  0  0  0
   41.8390   40.7280   31.3290 N   0  0  0  0  0  0  0  0  0  0  0  0
  2  1  2  0
  3  2  1  0
  4 15  1  0
  7 16  1  0
  7 18  2  0
  9  8  1  0
 10  6  1  0
 10  7  1  0
 11  8  1  0
 12  2  1  0
 13  6  1  0
 13 14  1  0
 15  6  1  0
 16  5  1  0
 16 17  1  0
 17 11  1  0
 17 12  1  0
 18 12  1  0
M  END
$$$$

     RDKit          3D

 11 11  0  0  0  0  0  0  0  0999 V2000
   44.8930   40.1210   33.3510 O   0  0  0  0  0  0  0  0  0  0  0  0
   41.4260   38.2980   30.5410 O   0  0  0  0  0  0  0  0  0  0  0  0
   41.5870   39.3630   33.9420 O   0  0  0  0  0  0  0  0  0  0  0  0
   40.9560   38.3380   31.8330 C   0  0  0  0  0  0  0  0  0  0  0  0
   41.6960   36.7200   33.1740 C   0  0  0  0  0  0  0  0  0  0  0  0
   41.8800   38.1860   33.0020 C   0  0  0  0  0  0  0  0  0  0  0  0
   43.3400   38.4260   32.6800 C   0  0  0  0  0  0  0  0  0  0  0  0
   44.1650   37.7510   32.0940 O   0  0  0  0  0  0  0  0  0  0  0  0
   42.6820   39.9630   34.5190 C   0  0  0  0  0  0  0  0  0  0  0  0
   42.8340   41.0930   35.6420 S   0  0  0  0  0  0  0  0  0  0  0  0
   43.8220   39.5640   33.5380 C   0  0  0  0  0  0  0  0  0  0  0  0
  1 11  2  0
  2  4  1  0
  3  9  1  0
  4  6  1  0
  6  5  1  0
  6  3  1  0
  7  6  1  0
  7 11  1  0
  8  7  2  0
  9 10  2  0
 11  9  1  0
M  END
$$$$

     RDKit          3D

 13 14  0  0  0  0  0  0  0  0999 V2000
   41.8800   38.8680   29.5520 C   0  0  0  0  0  0  0  0  0  0  0  0
   42.2250   41.2210   30.1360 C   0  0  0  0  0  0  0  0  0  0  0  0
   41.2090   37.3130   31.2730 N   0  0  0  0  0  0  0  0  0  0  0  0
   42.0190   40.8700   31.4780 C   0  0  0  0  0  0  0  0  0  0  0  0
   40.8820   37.0070   32.5410 C   0  0  0  0  0  0  0  0  0  0  0  0
   41.5820   38.5750   30.9040 C   0  0  0  0  0  0  0  0  0  0  0  0
   40.9470   37.9570   33.5230 C   0  0  0  0  0  0  0  0  0  0  0  0
   42.3880   42.5770   29.7030 C   0  0  0  0  0  0  0  0  0  0  0  0
   41.5710   43.5590   30.1440 C   0  0  0  0  0  0  0  0  0  0  0  0
   41.6830   39.5550   31.8840 C   0  0  0  0  0  0  0  0  0  0  0  0
   41.3840   39.2420   33.2070 C   0  0  0  0  0  0  0  0  0  0  0  0
   42.3040   40.1450   29.1870 C   0  0  0  0  0  0  0  0  0  0  0  0
   40.4400   35.6150   32.8110 C   0  0  0  0  0  0  0  0  0  0  0  0
  1  6  1  0
  2  4  2  0
  3  5  1  0
  4 10  1  0
  5 13  1  0
  5  7  2  0
  6  3  2  0
  6 10  1  0
  8  2  1  0
  8  9  2  0
 10 11  2  0
 11  7  1  0
 12  1  2  0
 12  2  1  0
M  END
$$$$

     RDKit          3D

 16 16  0  0  0  0  0  0  0  0999 V2000
   43.1640   36.8170   34.5160 C   0  0  0  0  0  0  0  0  0  0  0  0
   44.7230   38.6050   35.2140 O   0  0  0  0  0  0  0  0  0  0  0  0
   39.9910   42.7540   29.4080 S   0  0  0  0  0  0  0  0  0  0  0  0
   39.8990   41.0100   28.8840 C   0  0  0  0  0  0  0  0  0  0  0  0
   41.3210   40.3760   29.2800 C   0  0  0  0  0  0  0  0  0  0  0  0
   41.4110   35.6920   33.2640 C   0  0  0  0  0  0  0  0  0  0  0  0
   42.0880   38.0250   32.7730 C   0  0  0  0  0  0  0  0  0  0  0  0
   43.1810   39.0810   33.3780 C   0  0  0  0  0  0  0  0  0  0  0  0
   43.3650   38.3350   34.6990 C   0  0  0  0  0  0  0  0  0  0  0  0
   41.6340   43.5610   29.4500 C   0  0  0  0  0  0  0  0  0  0  0  0
   42.8650   39.6820   31.1030 C   0  0  0  0  0  0  0  0  0  0  0  0
   41.7860   40.6560   30.6220 O   0  0  0  0  0  0  0  0  0  0  0  0
   42.1850   36.9010   33.4950 N   0  0  0  0  0  0  0  0  0  0  0  0
   42.0910   39.9440   33.3120 N   0  0  0  0  0  0  0  0  0  0  0  0
   42.2910   38.2690   31.4400 C   0  0  0  0  0  0  0  0  0  0  0  0
   40.9230   37.5500   30.3460 S   0  0  0  0  0  0  0  0  0  0  0  0
  1  9  1  0
  3 10  1  0
  4  5  1  0
  4  3  1  0
  5 12  1  0
  6 13  1  0
  7 15  1  0
  7  8  1  0
  7 13  1  0
  8 14  1  0
  8  9  1  0
  9  2  1  0
 11 15  1  0
 12 11  1  0
 13  1  1  0
 15 16  1  0
M  END
$$$$

     RDKit          3D

  9  8  0  0  0  0  0  0  0  0999 V2000
   41.5100   39.0440   30.3540 C   0  0  0  0  0  0  0  0  0  0  0  0
   40.6680   38.0720   32.5750 C   0  0  0  0  0  0  0  0  0  0  0  0
   41.8320   40.3620   31.1600 C   0  0  0  0  0  0  0  0  0  0  0  0
   41.7130   38.8630   29.0120 O   0  0  0  0  0  0  0  0  0  0  0  0
   41.1660   36.3340   34.2480 C   0  0  0  0  0  0  0  0  0  0  0  0
   40.2460   38.6240   33.8550 O   0  0  0  0  0  0  0  0  0  0  0  0
   43.0410   37.2480   32.6270 C   0  0  0  0  0  0  0  0  0  0  0  0
   41.0770   37.9090   31.0060 N   0  0  0  0  0  0  0  0  0  0  0  0
   41.5750   36.8670   32.8990 C   0  0  0  0  0  0  0  0  0  0  0  0
  1  8  1  0
  1  3  1  0
  2  9  1  0
  2  6  2  0
  4  1  2  0
  7  9  1  0
  8  2  1  0
  9  5  1  0
M  END
$$$$

     RDKit          3D

 16 17  0  0  0  0  0  0  0  0999 V2000
   41.1510   40.4780   27.7820 C   0  0  0  0  0  0  0  0  0  0  0  0
   40.9220   37.4810   32.0380 C   0  0  0  0  0  0  0  0  0  0  0  0
   42.9800   38.5220   33.7150 C   0  0  0  0  0  0  0  0  0  0  0  0
   41.1470   41.7690   28.3440 C   0  0  0  0  0  0  0  0  0  0  0  0
   41.6350   40.8200   30.5150 N   0  0  0  0  0  0  0  0  0  0  0  0
   43.2270   36.2360   32.8820 O   0  0  0  0  0  0  0  0  0  0  0  0
   41.0630   39.6570   29.9940 C   0  0  0  0  0  0  0  0  0  0  0  0
   40.5460   38.4820   30.9380 S   0  0  0  0  0  0  0  0  0  0  0  0
   42.1000   38.3380   31.6000 C   0  0  0  0  0  0  0  0  0  0  0  0
   41.8230   36.5370   34.5060 O   0  0  0  0  0  0  0  0  0  0  0  0
   42.5990   37.0240   33.6700 C   0  0  0  0  0  0  0  0  0  0  0  0
   43.0980   39.2200   35.0690 C   0  0  0  0  0  0  0  0  0  0  0  0
   42.2650   39.4000   32.6880 C   0  0  0  0  0  0  0  0  0  0  0  0
   41.7380   43.1280   30.2440 N   0  0  0  0  0  0  0  0  0  0  0  0
   41.5600   41.8500   29.6810 C   0  0  0  0  0  0  0  0  0  0  0  0
   40.9390   39.4050   28.6190 N   0  0  0  0  0  0  0  0  0  0  0  0
  1  4  1  0
  1 16  1  0
  3 12  1  0
  4 15  1  0
  6 11  2  0
  7  5  2  0
  8  7  1  0
  8  9  1  0
  8  2  1  0
  9  2  1  0
  9 13  1  0
 11  3  1  0
 11 10  1  0
 13  3  1  0
 15 14  1  0
 15  5  1  0
 16  7  1  0
M  END
$$$$

     RDKit          3D

  6  5  0  0  0  0  0  0  0  0999 V2000
   42.1670   39.0940   34.3680 O   0  0  0  0  0  0  0  0  0  0  0  0
   41.6790   36.5390   33.1120 N   0  0  0  0  0  0  0  0  0  0  0  0
   40.7770   35.4910   32.8970 C   0  0  0  0  0  0  0  0  0  0  0  0
   43.7170   37.6300   32.2350 C   0  0  0  0  0  0  0  0  0  0  0  0
   41.7780   38.9460   32.9910 C   0  0  0  0  0  0  0  0  0  0  0  0
   42.2010   37.6470   32.2980 C   0  0  0  0  0  0  0  0  0  0  0  0
  3  2  1  0
  5  1  1  0
  6  4  1  0
  6  5  1  0
  6  2  1  0
M  END
$$$$

     RDKit          3D

 12 12  0  0  0  0  0  0  0  0999 V2000
   40.3690   36.0110   32.6420 C   0  0  0  0  0  0  0  0  0  0  0  0
   43.1780   40.1040   34.1300 O   0  0  0  0  0  0  0  0  0  0  0  0
   41.6370   38.5550   33.0050 C   0  0  0  0  0  0  0  0  0  0  0  0
   42.9250   40.2430   31.7650 C   0  0  0  0  0  0  0  0  0  0  0  0
   42.0260   39.4360   30.8910 C   0  0  0  0  0  0  0  0  0  0  0  0
   41.8860   37.5230   34.0170 N   0  0  0  0  0  0  0  0  0  0  0  0
   41.4330   36.1560   33.6980 C   0  0  0  0  0  0  0  0  0  0  0  0
   42.6590   39.6760   33.1430 C   0  0  0  0  0  0  0  0  0  0  0  0
   40.8070   40.1160   30.6230 O   0  0  0  0  0  0  0  0  0  0  0  0
   41.7610   38.2140   31.6040 O   0  0  0  0  0  0  0  0  0  0  0  0
   42.6890   39.4180   29.5300 C   0  0  0  0  0  0  0  0  0  0  0  0
   44.0230   39.7090   29.5880 O   0  0  0  0  0  0  0  0  0  0  0  0
  1  7  1  0
  3  8  1  0
  3  6  1  0
  4  8  1  0
  5  9  1  0
  5 10  1  0
  5  4  1  0
  7  6  1  0
  8  2  2  0
 10  3  1  0
 11 12  1  0
 11  5  1  0
M  END
$$$$
