
     RDKit          3D

 11 10  0  0  0  0  0  0  0  0999 V2000
   71.8730   40.5260   42.2090 C   0  0  0  0  0  0  0  0  0  0  0  0
   71.7840   40.1890   44.7150 O   0  0  0  0  0  0  0  0  0  0  0  0
   69.1260   43.9880   43.7590 C   0  0  0  0  0  0  0  0  0  0  0  0
   69.0190   42.5150   43.3010 C   0  0  0  0  0  0  0  0  0  0  0  0
   70.4610   44.0890   41.5660 O   0  0  0  0  0  0  0  0  0  0  0  0
   70.1920   44.9130   42.8370 P   0  0  0  0  0  0  0  0  0  0  0  0
   71.4140   45.4090   43.5970 O   0  0  0  0  0  0  0  0  0  0  0  0
   69.7500   41.3470   43.4920 C   0  0  0  0  0  0  0  0  0  0  0  0
   69.5020   46.2380   42.4670 O   0  0  0  0  0  0  0  0  0  0  0  0
   72.0150   42.5340   44.1120 O   0  0  0  0  0  0  0  0  0  0  0  0
   71.4140   41.2290   43.7670 P   0  0  0  0  0  0  0  0  0  0  0  0
  4  8  1  0
  4  3  1  0
  5  6  2  0
  6  7  1  0
  6  3  1  0
  8 11  1  0
  9  6  1  0
 11  1  1  0
 11 10  2  0
 11  2  1  0
M  END
$$$$

     RDKit          3D

 12 11  0  0  0  0  0  0  0  0999 V2000
   70.0910   42.8840   43.8800 C   0  0  0  0  0  0  0  0  0  0  0  0
   69.9340   40.6250   44.6900 O   0  0  0  0  0  0  0  0  0  0  0  0
   68.5660   42.1350   45.6870 O   0  0  0  0  0  0  0  0  0  0  0  0
   71.4900   42.8270   43.3030 N   0  0  0  0  0  0  0  0  0  0  0  0
   72.1770   42.4910   42.5040 C   0  0  0  0  0  0  0  0  0  0  0  0
   73.5630   42.5350   40.3550 C   0  0  0  0  0  0  0  0  0  0  0  0
   72.6640   43.0590   41.1550 C   0  0  0  0  0  0  0  0  0  0  0  0
   69.4930   41.8660   44.9200 C   0  0  0  0  0  0  0  0  0  0  0  0
   72.9130   44.4570   41.4560 C   0  0  0  0  0  0  0  0  0  0  0  0
   71.8050   45.0140   42.2050 O   0  0  0  0  0  0  0  0  0  0  0  0
   74.2870   44.2280   41.8310 C   0  0  0  0  0  0  0  0  0  0  0  0
   73.0150   45.2640   40.2740 C   0  0  0  0  0  0  0  0  0  0  0  0
  1  8  1  0
  2  8  2  0
  4  1  1  0
  5  4  1  0
  7  6  1  0
  7  9  1  0
  7  5  1  0
  8  3  1  0
  9 11  1  0
  9 10  1  0
 12  9  1  0
M  END
$$$$

     RDKit          3D

 13 13  0  0  0  0  0  0  0  0999 V2000
   69.2990   41.7540   43.0450 C   0  0  0  0  0  0  0  0  0  0  0  0
   71.1240   42.8520   43.9180 C   0  0  0  0  0  0  0  0  0  0  0  0
   68.9410   44.0550   43.6930 O   0  0  0  0  0  0  0  0  0  0  0  0
   72.6590   43.2730   42.2400 O   0  0  0  0  0  0  0  0  0  0  0  0
   70.8020   41.6250   42.9890 C   0  0  0  0  0  0  0  0  0  0  0  0
   69.8700   39.5780   44.7880 O   0  0  0  0  0  0  0  0  0  0  0  0
   71.0750   45.0180   42.8880 O   0  0  0  0  0  0  0  0  0  0  0  0
   71.6990   43.9620   43.0630 C   0  0  0  0  0  0  0  0  0  0  0  0
   71.0590   41.0940   41.5510 C   0  0  0  0  0  0  0  0  0  0  0  0
   69.8110   43.2880   44.5600 C   0  0  0  0  0  0  0  0  0  0  0  0
   68.9700   42.0180   44.4490 C   0  0  0  0  0  0  0  0  0  0  0  0
   68.6710   40.7240   46.4900 C   0  0  0  0  0  0  0  0  0  0  0  0
   69.5020   40.8150   45.2010 C   0  0  0  0  0  0  0  0  0  0  0  0
  1 11  1  0
  2  8  1  0
  2 10  1  0
  4  8  2  0
  5  9  1  0
  5  1  1  0
  5  2  1  0
  6 13  1  0
  7  8  1  0
 10  3  1  0
 11 10  1  0
 11 13  1  0
 13 12  1  0
M  END
$$$$

     RDKit          3D

 19 20  0  0  0  0  0  0  0  0999 V2000
   70.2710   45.0310   42.6230 C   0  0  0  0  0  0  0  0  0  0  0  0
   72.8270   39.1640   45.3780 C   0  0  0  0  0  0  0  0  0  0  0  0
   71.0050   42.9280   43.8440 C   0  0  0  0  0  0  0  0  0  0  0  0
   69.1950   44.3450   42.7770 C   0  0  0  0  0  0  0  0  0  0  0  0
   70.2350   48.5240   41.1250 C   0  0  0  0  0  0  0  0  0  0  0  0
   69.2530   48.5190   39.9920 C   0  0  0  0  0  0  0  0  0  0  0  0
   71.6940   44.0210   42.7020 S   0  0  0  0  0  0  0  0  0  0  0  0
   72.2350   41.1130   43.3740 O   0  0  0  0  0  0  0  0  0  0  0  0
   70.4740   41.9490   46.3950 C   0  0  0  0  0  0  0  0  0  0  0  0
   68.8170   43.6220   43.7360 O   0  0  0  0  0  0  0  0  0  0  0  0
   69.9290   46.2440   41.9070 C   0  0  0  0  0  0  0  0  0  0  0  0
   71.1850   41.0780   45.4630 N   0  0  0  0  0  0  0  0  0  0  0  0
   68.4700   41.0510   45.6330 O   0  0  0  0  0  0  0  0  0  0  0  0
   70.1820   43.4230   44.5210 C   0  0  0  0  0  0  0  0  0  0  0  0
   69.9610   47.3000   41.9000 O   0  0  0  0  0  0  0  0  0  0  0  0
   71.5260   39.7410   45.9760 C   0  0  0  0  0  0  0  0  0  0  0  0
   68.9590   49.9220   39.7550 N   0  0  0  0  0  0  0  0  0  0  0  0
   69.3500   42.2860   45.4860 C   0  0  0  0  0  0  0  0  0  0  0  0
   71.4860   41.5310   44.1530 C   0  0  0  0  0  0  0  0  0  0  0  0
  1 11  1  0
  1  7  1  0
  1  4  1  0
  2 16  1  0
  3  7  1  0
  3 19  1  0
  3 14  1  0
  4 10  1  0
  5 15  1  0
  6  5  1  0
  8 19  2  0
 12 16  1  0
 12  9  1  0
 14 10  1  0
 14 18  1  0
 15 11  1  0
 17  6  1  0
 18 13  1  0
 18  9  1  0
 19 12  1  0
M  END
$$$$

     RDKit          3D

  8  7  0  0  0  0  0  0  0  0999 V2000
   71.0880   43.5160   44.6920 O   0  0  0  0  0  0  0  0  0  0  0  0
   71.4130   43.5420   42.8240 C   0  0  0  0  0  0  0  0  0  0  0  0
   71.4380   43.7500   41.5490 C   0  0  0  0  0  0  0  0  0  0  0  0
   72.8860   44.0030   41.1270 C   0  0  0  0  0  0  0  0  0  0  0  0
   70.4740   43.5380   43.9120 C   0  0  0  0  0  0  0  0  0  0  0  0
   67.8910   43.2320   44.1210 C   0  0  0  0  0  0  0  0  0  0  0  0
   69.1470   42.8220   43.4590 C   0  0  0  0  0  0  0  0  0  0  0  0
   69.0320   42.2700   42.1060 O   0  0  0  0  0  0  0  0  0  0  0  0
  2  5  1  0
  3  2  1  0
  4  3  1  0
  5  1  2  0
  7  5  1  0
  7  6  1  0
  8  7  1  0
M  END
$$$$

     RDKit          3D

  1  0  0  0  0  0  0  0  0  0999 V2000
   72.3750   60.4430   27.4820 O   0  0  0  0  0  0  0  0  0  0  0  0
M  END
$$$$

     RDKit          3D

 26 26  0  0  0  0  0  0  0  0999 V2000
   65.0840   42.3290   49.2470 C   0  0  0  0  0  0  0  0  0  0  0  0
   65.7080   42.2130   42.6710 O   0  0  0  0  0  0  0  0  0  0  0  0
   64.2700   42.0800   46.6690 C   0  0  0  0  0  0  0  0  0  0  0  0
   69.6160   40.5450   42.0600 O   0  0  0  0  0  0  0  0  0  0  0  0
   68.2560   40.4620   42.3490 C   0  0  0  0  0  0  0  0  0  0  0  0
   69.8600   41.2760   44.6510 N   0  0  0  0  0  0  0  0  0  0  0  0
   71.8510   41.6790   42.6220 C   0  0  0  0  0  0  0  0  0  0  0  0
   70.3190   42.0760   43.7150 C   0  0  0  0  0  0  0  0  0  0  0  0
   64.6900   40.4400   44.5190 O   0  0  0  0  0  0  0  0  0  0  0  0
   65.9740   41.8810   48.3300 C   0  0  0  0  0  0  0  0  0  0  0  0
   68.3500   42.5730   42.0490 O   0  0  0  0  0  0  0  0  0  0  0  0
   62.9610   42.5540   50.0600 N   0  0  0  0  0  0  0  0  0  0  0  0
   72.5730   42.6130   43.1070 O   0  0  0  0  0  0  0  0  0  0  0  0
   63.3280   42.4730   47.6200 C   0  0  0  0  0  0  0  0  0  0  0  0
   68.7230   41.4620   46.7300 C   0  0  0  0  0  0  0  0  0  0  0  0
   70.4770   41.6530   42.3250 C   0  0  0  0  0  0  0  0  0  0  0  0
   65.5380   41.7770   47.0300 C   0  0  0  0  0  0  0  0  0  0  0  0
   66.3530   41.4320   45.8910 C   0  0  0  0  0  0  0  0  0  0  0  0
   66.4720   41.6950   43.4700 C   0  0  0  0  0  0  0  0  0  0  0  0
   71.5560   39.7060   44.4500 C   0  0  0  0  0  0  0  0  0  0  0  0
   70.7730   40.9640   44.4020 C   0  0  0  0  0  0  0  0  0  0  0  0
   67.9530   41.7350   43.0490 C   0  0  0  0  0  0  0  0  0  0  0  0
   65.9940   40.9790   44.6200 N   0  0  0  0  0  0  0  0  0  0  0  0
   67.6640   41.7080   46.1010 O   0  0  0  0  0  0  0  0  0  0  0  0
   69.7120   42.1600   45.9100 C   0  0  0  0  0  0  0  0  0  0  0  0
   63.6980   42.5920   48.9040 C   0  0  0  0  0  0  0  0  0  0  0  0
  2 19  2  0
  3 17  2  0
  3 14  1  0
  4 16  1  0
  4  5  1  0
  5 22  1  0
  6 25  1  0
  7 13  2  0
  8  6  1  0
  9 23  1  0
 10  1  2  0
 14 26  2  0
 16  7  1  0
 17 10  1  0
 18 24  1  0
 18 17  1  0
 19 23  1  0
 21 20  1  0
 21  6  1  0
 22 11  1  0
 22 19  1  0
 23 18  1  0
 24 15  1  0
 25 15  1  0
 26  1  1  0
 26 12  1  0
M  END
$$$$

     RDKit          3D

 14 15  0  0  0  0  0  0  0  0999 V2000
   72.2580   42.5640   43.7230 C   0  0  0  0  0  0  0  0  0  0  0  0
   68.5490   42.1290   44.6440 O   0  0  0  0  0  0  0  0  0  0  0  0
   71.3580   46.5860   43.2020 O   0  0  0  0  0  0  0  0  0  0  0  0
   67.7610   44.2490   43.1550 O   0  0  0  0  0  0  0  0  0  0  0  0
   70.7110   42.7410   43.4460 C   0  0  0  0  0  0  0  0  0  0  0  0
   68.7880   43.9440   43.6790 C   0  0  0  0  0  0  0  0  0  0  0  0
   69.7430   44.7200   44.0120 O   0  0  0  0  0  0  0  0  0  0  0  0
   71.2990   45.5440   42.3780 C   0  0  0  0  0  0  0  0  0  0  0  0
   72.3800   41.0850   43.0800 C   0  0  0  0  0  0  0  0  0  0  0  0
   71.6300   45.7400   41.0900 O   0  0  0  0  0  0  0  0  0  0  0  0
   69.3400   42.7110   43.8410 C   0  0  0  0  0  0  0  0  0  0  0  0
   73.7480   42.9160   44.0840 C   0  0  0  0  0  0  0  0  0  0  0  0
   70.6280   44.3200   42.9840 C   0  0  0  0  0  0  0  0  0  0  0  0
   72.9880   43.6750   43.2230 O   0  0  0  0  0  0  0  0  0  0  0  0
  1  9  1  0
  1 12  1  0
  4  6  2  0
  5  1  1  0
  5 11  1  0
  6 11  1  0
  6  7  1  0
  8  3  1  0
 10  8  2  0
 11  2  2  0
 13  8  1  0
 13  5  1  0
 13  7  1  0
 14  1  1  0
 14 12  1  0
M  END
$$$$

     RDKit          3D

 25 29  0  0  0  0  0  0  0  0999 V2000
   70.5370   41.5500   43.9120 C   0  0  0  0  0  0  0  0  0  0  0  0
   71.2410   41.7670   41.1590 C   0  0  0  0  0  0  0  0  0  0  0  0
   69.5030   44.0140   40.7450 C   0  0  0  0  0  0  0  0  0  0  0  0
   67.8640   44.1950   43.7130 N   0  0  0  0  0  0  0  0  0  0  0  0
   69.0530   46.1520   41.7410 C   0  0  0  0  0  0  0  0  0  0  0  0
   67.4140   42.0160   45.9200 C   0  0  0  0  0  0  0  0  0  0  0  0
   68.5400   45.0370   41.0550 O   0  0  0  0  0  0  0  0  0  0  0  0
   72.0920   38.6410   44.2040 C   0  0  0  0  0  0  0  0  0  0  0  0
   69.3530   43.1430   42.0210 C   0  0  0  0  0  0  0  0  0  0  0  0
   70.7860   42.8360   42.1210 C   0  0  0  0  0  0  0  0  0  0  0  0
   71.0530   41.5870   42.6360 N   0  0  0  0  0  0  0  0  0  0  0  0
   70.7340   44.8790   40.6620 C   0  0  0  0  0  0  0  0  0  0  0  0
   69.7590   47.3130   39.8360 C   0  0  0  0  0  0  0  0  0  0  0  0
   69.1710   42.2410   44.2590 C   0  0  0  0  0  0  0  0  0  0  0  0
   71.9430   44.5610   40.5690 O   0  0  0  0  0  0  0  0  0  0  0  0
   71.3740   40.9220   44.9640 C   0  0  0  0  0  0  0  0  0  0  0  0
   66.7490   43.1510   45.5520 C   0  0  0  0  0  0  0  0  0  0  0  0
   72.5930   40.0920   44.4390 C   0  0  0  0  0  0  0  0  0  0  0  0
   67.0850   44.0850   44.6550 C   0  0  0  0  0  0  0  0  0  0  0  0
   70.8500   47.5680   40.7990 C   0  0  0  0  0  0  0  0  0  0  0  0
   69.8170   46.3600   42.9770 O   0  0  0  0  0  0  0  0  0  0  0  0
   68.7330   43.2520   43.5360 C   0  0  0  0  0  0  0  0  0  0  0  0
   68.5730   41.6350   45.3030 C   0  0  0  0  0  0  0  0  0  0  0  0
   73.6140   40.2760   45.4820 N   0  0  0  0  0  0  0  0  0  0  0  0
   70.3100   46.1750   40.5560 C   0  0  0  0  0  0  0  0  0  0  0  0
  1 14  1  0
  1 16  2  3
  2 11  1  0
  3 12  1  0
  3  7  1  0
  3  9  1  0
  4 19  1  0
  5 21  1  0
  7  5  1  0
  9 10  1  0
  9 22  1  0
 10  2  1  0
 10 11  1  0
 11  1  1  0
 13 25  1  0
 13 20  1  0
 14 23  2  0
 15 12  2  0
 17  6  2  0
 18  8  1  0
 18 16  1  0
 18 24  1  0
 19 17  1  0
 22  4  2  0
 22 14  1  0
 23  6  1  0
 25 12  1  0
 25 20  1  0
 25  5  1  0
M  END
$$$$

     RDKit          3D

 12 13  0  0  0  0  0  0  0  0999 V2000
   74.3010   44.2990   42.9750 C   0  0  0  0  0  0  0  0  0  0  0  0
   72.5190   42.6770   43.3320 C   0  0  0  0  0  0  0  0  0  0  0  0
   72.9620   43.7380   43.0970 C   0  0  0  0  0  0  0  0  0  0  0  0
   72.7240   41.4950   42.8400 N   0  0  0  0  0  0  0  0  0  0  0  0
   72.8940   37.6160   43.8680 C   0  0  0  0  0  0  0  0  0  0  0  0
   72.6130   38.8620   43.0970 C   0  0  0  0  0  0  0  0  0  0  0  0
   71.8360   39.8180   43.9060 C   0  0  0  0  0  0  0  0  0  0  0  0
   71.8500   43.4900   43.7090 O   0  0  0  0  0  0  0  0  0  0  0  0
   73.5970   41.7590   41.1420 C   0  0  0  0  0  0  0  0  0  0  0  0
   73.2990   40.7970   42.1990 C   0  0  0  0  0  0  0  0  0  0  0  0
   73.1360   39.3780   41.9460 N   0  0  0  0  0  0  0  0  0  0  0  0
   71.9630   41.1260   43.6570 N   0  0  0  0  0  0  0  0  0  0  0  0
  2  4  1  0
  2  8  1  0
  3  1  1  0
  3  2  1  0
  3  8  1  0
  4 12  1  0
  6  5  1  0
  6  7  1  0
 10  9  1  0
 10  4  1  0
 11 10  1  0
 11  6  1  0
 12  7  2  0
M  END
$$$$

     RDKit          3D

 13 13  0  0  0  0  0  0  0  0999 V2000
   70.4190   43.8050   44.4270 C   0  0  0  0  0  0  0  0  0  0  0  0
   71.0660   40.6490   44.1420 C   0  0  0  0  0  0  0  0  0  0  0  0
   69.5590   44.9060   42.2200 N   0  0  0  0  0  0  0  0  0  0  0  0
   70.0360   41.4200   44.1770 N   0  0  0  0  0  0  0  0  0  0  0  0
   70.8810   46.8340   42.7340 O   0  0  0  0  0  0  0  0  0  0  0  0
   70.7080   45.6140   42.6820 C   0  0  0  0  0  0  0  0  0  0  0  0
   69.7580   42.7810   43.5520 C   0  0  0  0  0  0  0  0  0  0  0  0
   71.3050   44.6680   43.5250 C   0  0  0  0  0  0  0  0  0  0  0  0
   72.4280   41.3080   44.1040 O   0  0  0  0  0  0  0  0  0  0  0  0
   71.9410   38.4680   43.5330 C   0  0  0  0  0  0  0  0  0  0  0  0
   71.1610   40.0700   41.8210 O   0  0  0  0  0  0  0  0  0  0  0  0
   70.9230   39.5260   43.0690 C   0  0  0  0  0  0  0  0  0  0  0  0
   68.8660   43.9250   42.9470 C   0  0  0  0  0  0  0  0  0  0  0  0
  2  9  1  0
  2  4  1  0
  3  6  1  0
  3 13  1  0
  6  5  2  0
  6  8  1  0
  7  4  1  0
  7  1  1  0
  8  1  1  0
 11 12  1  0
 12 10  1  0
 12  2  1  0
 13  7  1  0
M  END
$$$$

     RDKit          3D

 38 41  0  0  0  0  0  0  0  0999 V2000
   72.0020   43.8760   42.4510 C   0  0  0  0  0  0  0  0  0  0  0  0
   73.4100   43.7640   39.3120 C   0  0  0  0  0  0  0  0  0  0  0  0
   63.8110   43.8020   48.8530 F   0  0  0  0  0  0  0  0  0  0  0  0
   67.9420   39.8350   47.3480 N   0  0  0  0  0  0  0  0  0  0  0  0
   64.3680   48.4200   40.8740 N   0  0  0  0  0  0  0  0  0  0  0  0
   66.5860   44.6520   42.8370 C   0  0  0  0  0  0  0  0  0  0  0  0
   72.7620   45.8570   41.4680 C   0  0  0  0  0  0  0  0  0  0  0  0
   70.1320   42.3400   43.3320 N   0  0  0  0  0  0  0  0  0  0  0  0
   68.2530   40.6360   48.5300 C   0  0  0  0  0  0  0  0  0  0  0  0
   65.0610   48.1120   42.1770 C   0  0  0  0  0  0  0  0  0  0  0  0
   65.9680   47.0560   42.7810 C   0  0  0  0  0  0  0  0  0  0  0  0
   70.8470   44.3550   42.6050 O   0  0  0  0  0  0  0  0  0  0  0  0
   71.3670   40.8230   44.1070 N   0  0  0  0  0  0  0  0  0  0  0  0
   68.2730   40.1170   46.0080 C   0  0  0  0  0  0  0  0  0  0  0  0
   71.3400   41.9250   43.3710 C   0  0  0  0  0  0  0  0  0  0  0  0
   67.0360   41.3960   48.9350 C   0  0  0  0  0  0  0  0  0  0  0  0
   65.4000   42.6540   47.7900 C   0  0  0  0  0  0  0  0  0  0  0  0
   75.0800   43.4800   41.1700 O   0  0  0  0  0  0  0  0  0  0  0  0
   69.4180   41.5520   43.8470 C   0  0  0  0  0  0  0  0  0  0  0  0
   64.8970   45.3770   41.4410 C   0  0  0  0  0  0  0  0  0  0  0  0
   67.7930   43.1790   44.3370 C   0  0  0  0  0  0  0  0  0  0  0  0
   64.8980   42.9610   48.9870 C   0  0  0  0  0  0  0  0  0  0  0  0
   65.4130   45.6300   42.8110 C   0  0  0  0  0  0  0  0  0  0  0  0
   69.6070   39.6180   45.4540 C   0  0  0  0  0  0  0  0  0  0  0  0
   72.9080   44.4450   41.7150 N   0  0  0  0  0  0  0  0  0  0  0  0
   68.6890   42.5260   43.6470 C   0  0  0  0  0  0  0  0  0  0  0  0
   66.4400   41.8160   47.7930 C   0  0  0  0  0  0  0  0  0  0  0  0
   65.2500   42.4720   50.1880 C   0  0  0  0  0  0  0  0  0  0  0  0
   63.9220   49.4260   39.8210 C   0  0  0  0  0  0  0  0  0  0  0  0
   72.3900   42.4280   42.4740 C   0  0  0  0  0  0  0  0  0  0  0  0
   63.6350   47.2570   40.4380 C   0  0  0  0  0  0  0  0  0  0  0  0
   73.1370   41.4900   41.8240 O   0  0  0  0  0  0  0  0  0  0  0  0
   63.6410   45.8290   40.8760 C   0  0  0  0  0  0  0  0  0  0  0  0
   73.9810   43.8320   41.0480 C   0  0  0  0  0  0  0  0  0  0  0  0
   66.9520   44.2990   44.2470 C   0  0  0  0  0  0  0  0  0  0  0  0
   66.4500   41.7300   50.1400 C   0  0  0  0  0  0  0  0  0  0  0  0
   70.0790   40.6220   44.4410 C   0  0  0  0  0  0  0  0  0  0  0  0
   73.1830   40.8840   40.4790 C   0  0  0  0  0  0  0  0  0  0  0  0
  1 30  1  0
  1 12  2  0
  2 34  1  0
  3 22  1  0
  4  9  1  0
  5 10  1  0
  6 35  1  0
  7 25  1  0
  8 15  1  0
  8 26  1  0
  9 16  1  0
 10 11  1  0
 11 23  1  0
 13 37  1  0
 14  4  1  0
 15 13  2  0
 16 36  1  0
 17 27  1  0
 17 22  2  0
 19  8  1  0
 19 37  1  0
 20 23  1  0
 22 28  1  0
 23  6  1  0
 24 14  1  0
 25  1  1  0
 26 19  1  0
 26 21  1  0
 27 16  2  0
 29  5  1  0
 30 32  1  0
 30 15  1  0
 31  5  1  0
 31 33  1  0
 33 20  1  0
 34 18  2  0
 34 25  1  0
 35 21  1  0
 36 28  2  0
 37 24  1  0
 38 32  1  0
M  END
$$$$

     RDKit          3D

  8  7  0  0  0  0  0  0  0  0999 V2000
   70.4500   43.8390   45.2390 O   0  0  0  0  0  0  0  0  0  0  0  0
   71.3890   41.1960   44.3160 C   0  0  0  0  0  0  0  0  0  0  0  0
   70.7500   39.8470   44.3730 C   0  0  0  0  0  0  0  0  0  0  0  0
   69.1710   41.6400   45.4640 O   0  0  0  0  0  0  0  0  0  0  0  0
   71.1740   43.6580   41.6500 O   0  0  0  0  0  0  0  0  0  0  0  0
   70.5410   43.5370   42.6750 C   0  0  0  0  0  0  0  0  0  0  0  0
   70.3070   42.3130   43.5350 C   0  0  0  0  0  0  0  0  0  0  0  0
   69.9310   42.6160   44.9250 C   0  0  0  0  0  0  0  0  0  0  0  0
  2  3  1  0
  5  6  2  0
  7  6  1  0
  7  2  1  0
  7  8  1  0
  8  1  2  0
  8  4  1  0
M  END
$$$$

     RDKit          3D

 16 15  0  0  0  0  0  0  0  0999 V2000
   70.7500   45.5740   39.9850 C   0  0  0  0  0  0  0  0  0  0  0  0
   70.7880   43.2380   43.4370 P   0  0  0  0  0  0  0  0  0  0  0  0
   71.9830   41.9290   43.6080 S   0  0  0  0  0  0  0  0  0  0  0  0
   70.9040   44.2830   42.1840 N   0  0  0  0  0  0  0  0  0  0  0  0
   69.3580   46.0210   38.9900 S   0  0  0  0  0  0  0  0  0  0  0  0
   71.4240   38.2810   45.3650 C   0  0  0  0  0  0  0  0  0  0  0  0
   71.7570   38.8800   46.8870 C   0  0  0  0  0  0  0  0  0  0  0  0
   71.4870   39.4310   44.3920 C   0  0  0  0  0  0  0  0  0  0  0  0
   71.0080   38.7710   47.7780 O   0  0  0  0  0  0  0  0  0  0  0  0
   70.0040   44.5730   41.0380 C   0  0  0  0  0  0  0  0  0  0  0  0
   70.8290   44.1320   44.7250 O   0  0  0  0  0  0  0  0  0  0  0  0
   73.2140   38.5970   46.8870 O   0  0  0  0  0  0  0  0  0  0  0  0
   70.9000   40.6280   44.2430 C   0  0  0  0  0  0  0  0  0  0  0  0
   69.4120   42.7110   43.7030 O   0  0  0  0  0  0  0  0  0  0  0  0
   68.9760   47.4410   39.0030 O   0  0  0  0  0  0  0  0  0  0  0  0
   69.3230   44.9860   37.8970 O   0  0  0  0  0  0  0  0  0  0  0  0
  1 10  1  0
  2  3  1  0
  2 14  2  0
  2 11  1  0
  3 13  1  0
  4  2  1  0
  5 16  1  0
  5 15  2  0
  5  1  1  0
  6  7  1  0
  7 12  2  0
  7  9  1  0
  8  6  1  0
 10  4  1  0
 13  8  1  0
M  END
$$$$

     RDKit          3D

 11 10  0  0  0  0  0  0  0  0999 V2000
   71.0110   40.3980   45.3160 C   0  0  0  0  0  0  0  0  0  0  0  0
   72.2400   40.8620   43.0070 O   0  0  0  0  0  0  0  0  0  0  0  0
   70.6320   42.7240   43.8240 C   0  0  0  0  0  0  0  0  0  0  0  0
   69.2740   44.6480   42.6670 C   0  0  0  0  0  0  0  0  0  0  0  0
   72.2740   40.6220   45.5720 O   0  0  0  0  0  0  0  0  0  0  0  0
   69.4920   45.5370   41.8090 O   0  0  0  0  0  0  0  0  0  0  0  0
   71.9410   42.1570   43.4020 C   0  0  0  0  0  0  0  0  0  0  0  0
   69.8320   41.2690   45.5430 C   0  0  0  0  0  0  0  0  0  0  0  0
   68.2950   44.7220   43.3410 O   0  0  0  0  0  0  0  0  0  0  0  0
   69.6450   42.1330   44.3750 N   0  0  0  0  0  0  0  0  0  0  0  0
   70.7130   44.1090   43.2740 C   0  0  0  0  0  0  0  0  0  0  0  0
  1  8  1  0
  1  5  1  0
  2  7  1  0
  3 11  1  0
  3 10  1  0
  4 11  1  0
  4  9  1  0
  6  4  2  0
  7  3  1  0
 10  8  1  0
M  END
$$$$

     RDKit          3D

 17 18  0  0  0  0  0  0  0  0999 V2000
   72.2710   41.6280   42.0890 O   0  0  0  0  0  0  0  0  0  0  0  0
   68.7780   43.0490   44.6370 C   0  0  0  0  0  0  0  0  0  0  0  0
   71.9720   37.7810   45.9180 O   0  0  0  0  0  0  0  0  0  0  0  0
   73.2470   39.7110   46.1770 O   0  0  0  0  0  0  0  0  0  0  0  0
   67.8050   44.3540   42.9470 O   0  0  0  0  0  0  0  0  0  0  0  0
   71.2850   40.9570   44.4480 C   0  0  0  0  0  0  0  0  0  0  0  0
   70.9300   39.8850   45.5160 C   0  0  0  0  0  0  0  0  0  0  0  0
   67.5180   43.3990   43.9500 C   0  0  0  0  0  0  0  0  0  0  0  0
   70.5280   41.5600   43.7030 N   0  0  0  0  0  0  0  0  0  0  0  0
   71.0680   39.8760   41.9750 C   0  0  0  0  0  0  0  0  0  0  0  0
   69.8940   42.7830   43.6020 C   0  0  0  0  0  0  0  0  0  0  0  0
   71.3520   41.1070   42.8260 C   0  0  0  0  0  0  0  0  0  0  0  0
   69.0050   44.9840   43.2410 C   0  0  0  0  0  0  0  0  0  0  0  0
   70.2790   44.1620   43.1380 C   0  0  0  0  0  0  0  0  0  0  0  0
   68.9740   42.2470   45.8340 C   0  0  0  0  0  0  0  0  0  0  0  0
   68.1850   41.0390   45.6940 O   0  0  0  0  0  0  0  0  0  0  0  0
   72.1570   39.0480   45.9150 C   0  0  0  0  0  0  0  0  0  0  0  0
  1 12  1  0
  2 15  1  0
  5 13  1  0
  5  8  1  0
  6  7  1  0
  7 17  1  0
  8  2  1  0
  9 11  1  0
  9  6  1  0
 11 14  1  0
 11  2  1  0
 12 10  1  0
 12  9  1  0
 12  6  1  0
 14 13  1  0
 16 15  1  0
 17  3  2  0
 17  4  1  0
M  END
$$$$

     RDKit          3D

 11 11  0  0  0  0  0  0  0  0999 V2000
   70.8950   47.3470   42.3170 C   0  0  0  0  0  0  0  0  0  0  0  0
   69.0050   42.1420   42.1730 C   0  0  0  0  0  0  0  0  0  0  0  0
   70.8680   41.1170   43.1800 O   0  0  0  0  0  0  0  0  0  0  0  0
   70.3450   42.1940   42.8930 C   0  0  0  0  0  0  0  0  0  0  0  0
   68.5710   43.4780   41.5980 C   0  0  0  0  0  0  0  0  0  0  0  0
   69.1130   44.7200   42.1160 N   0  0  0  0  0  0  0  0  0  0  0  0
   70.9180   43.5140   43.0790 C   0  0  0  0  0  0  0  0  0  0  0  0
   67.2850   43.6120   42.3410 N   0  0  0  0  0  0  0  0  0  0  0  0
   71.0730   46.0170   42.0020 C   0  0  0  0  0  0  0  0  0  0  0  0
   70.3920   44.7730   42.4600 C   0  0  0  0  0  0  0  0  0  0  0  0
   72.2730   43.7620   43.3250 N   0  0  0  0  0  0  0  0  0  0  0  0
  2  4  1  0
  4  7  1  0
  4  3  2  0
  5  6  1  0
  5  2  1  0
  5  8  1  0
  6 10  1  0
  7 11  1  0
  9  1  1  0
 10  9  1  0
 10  7  1  0
M  END
$$$$

     RDKit          3D

 20 21  0  0  0  0  0  0  0  0999 V2000
   69.8100   45.4810   42.2220 N   0  0  0  0  0  0  0  0  0  0  0  0
   72.2340   45.5380   41.6320 N   0  0  0  0  0  0  0  0  0  0  0  0
   71.0730   46.0540   42.0040 C   0  0  0  0  0  0  0  0  0  0  0  0
   70.8880   47.5260   41.8490 C   0  0  0  0  0  0  0  0  0  0  0  0
   68.5270   44.6930   43.9660 O   0  0  0  0  0  0  0  0  0  0  0  0
   69.5690   42.7300   44.5390 C   0  0  0  0  0  0  0  0  0  0  0  0
   68.3050   43.3430   44.5860 C   0  0  0  0  0  0  0  0  0  0  0  0
   68.6090   39.2060   46.0830 C   0  0  0  0  0  0  0  0  0  0  0  0
   71.9990   48.0720   42.4760 O   0  0  0  0  0  0  0  0  0  0  0  0
   70.4830   43.1850   45.5310 O   0  0  0  0  0  0  0  0  0  0  0  0
   69.6990   48.0340   42.2270 O   0  0  0  0  0  0  0  0  0  0  0  0
   71.8420   41.0250   44.2890 O   0  0  0  0  0  0  0  0  0  0  0  0
   69.4560   41.1570   44.8240 C   0  0  0  0  0  0  0  0  0  0  0  0
   69.6960   38.4660   45.6210 C   0  0  0  0  0  0  0  0  0  0  0  0
   69.9200   44.6720   43.3690 C   0  0  0  0  0  0  0  0  0  0  0  0
   70.7810   39.1370   45.0810 C   0  0  0  0  0  0  0  0  0  0  0  0
   70.7660   40.4940   44.8010 C   0  0  0  0  0  0  0  0  0  0  0  0
   70.4540   43.4400   43.4730 C   0  0  0  0  0  0  0  0  0  0  0  0
   68.6090   40.6070   45.8900 C   0  0  0  0  0  0  0  0  0  0  0  0
   67.6920   41.4110   46.5760 O   0  0  0  0  0  0  0  0  0  0  0  0
  2  3  2  0
  3  1  1  0
  4  3  1  0
  4 11  1  0
  4  9  1  0
  5  7  1  0
  6  7  1  0
  6 13  1  0
  6 10  1  0
 12 17  1  0
 13 19  2  0
 14  8  2  0
 15  1  1  0
 15 18  1  0
 15  5  1  0
 16 14  1  0
 17 13  1  0
 17 16  2  0
 18  6  1  0
 19  8  1  0
 19 20  1  0
M  END
$$$$

     RDKit          3D

 22 24  0  0  0  0  0  0  0  0999 V2000
   71.6190   42.6750   44.1800 C   0  0  0  0  0  0  0  0  0  0  0  0
   71.8890   38.7270   44.0610 N   0  0  0  0  0  0  0  0  0  0  0  0
   72.2610   42.4300   42.8530 C   0  0  0  0  0  0  0  0  0  0  0  0
   71.6350   41.6930   45.2180 N   0  0  0  0  0  0  0  0  0  0  0  0
   70.3830   43.4900   44.1990 C   0  0  0  0  0  0  0  0  0  0  0  0
   70.3600   46.3810   41.7310 N   0  0  0  0  0  0  0  0  0  0  0  0
   69.8980   45.7050   42.9360 C   0  0  0  0  0  0  0  0  0  0  0  0
   69.1400   42.9980   44.7710 C   0  0  0  0  0  0  0  0  0  0  0  0
   73.2040   41.2640   43.1470 C   0  0  0  0  0  0  0  0  0  0  0  0
   72.5490   45.8400   41.8690 O   0  0  0  0  0  0  0  0  0  0  0  0
   67.7410   44.3770   43.4060 C   0  0  0  0  0  0  0  0  0  0  0  0
   67.8820   43.3820   44.4520 C   0  0  0  0  0  0  0  0  0  0  0  0
   70.3810   41.0790   45.6280 C   0  0  0  0  0  0  0  0  0  0  0  0
   72.3880   40.1010   43.6950 C   0  0  0  0  0  0  0  0  0  0  0  0
   72.0160   46.4400   40.0290 C   0  0  0  0  0  0  0  0  0  0  0  0
   69.2940   42.0140   45.7320 N   0  0  0  0  0  0  0  0  0  0  0  0
   72.6170   38.0970   45.1670 C   0  0  0  0  0  0  0  0  0  0  0  0
   71.6890   46.5270   41.5380 C   0  0  0  0  0  0  0  0  0  0  0  0
   71.9740   47.7580   39.6370 N   0  0  0  0  0  0  0  0  0  0  0  0
   68.5690   44.9420   42.6900 C   0  0  0  0  0  0  0  0  0  0  0  0
   72.6940   40.7020   45.0230 C   0  0  0  0  0  0  0  0  0  0  0  0
   70.6980   44.7930   43.6770 N   0  0  0  0  0  0  0  0  0  0  0  0
  1  3  1  0
  1  5  1  0
  1  4  1  0
  2 17  1  0
  3  9  1  0
  4 21  1  0
  4 13  1  0
  5 22  1  0
  5  8  1  0
  7  6  1  0
  7 22  1  0
  8 12  1  0
  8 16  1  0
  9 14  1  0
 11 12  2  0
 13 16  1  0
 14  2  1  0
 14 21  1  0
 15 18  1  0
 18  6  1  0
 18 10  1  0
 19 15  1  0
 20  7  1  0
 20 11  1  0
M  END
$$$$

     RDKit          3D

 13 12  0  0  0  0  0  0  0  0999 V2000
   70.7480   45.9810   43.6330 N   0  0  0  0  0  0  0  0  0  0  0  0
   71.4670   43.6570   43.7670 C   0  0  0  0  0  0  0  0  0  0  0  0
   73.8730   43.6350   43.2350 O   0  0  0  0  0  0  0  0  0  0  0  0
   68.4300   45.1680   42.9860 C   0  0  0  0  0  0  0  0  0  0  0  0
   70.2060   43.7070   43.9880 C   0  0  0  0  0  0  0  0  0  0  0  0
   74.1080   41.8440   44.8300 O   0  0  0  0  0  0  0  0  0  0  0  0
   67.6400   44.3010   42.5400 O   0  0  0  0  0  0  0  0  0  0  0  0
   68.0190   46.3440   43.1560 O   0  0  0  0  0  0  0  0  0  0  0  0
   71.6930   41.1360   44.8130 O   0  0  0  0  0  0  0  0  0  0  0  0
   72.7150   41.4030   43.6970 S   0  0  0  0  0  0  0  0  0  0  0  0
   69.8940   44.8410   43.0080 C   0  0  0  0  0  0  0  0  0  0  0  0
   72.5370   42.9460   43.2540 C   0  0  0  0  0  0  0  0  0  0  0  0
   73.9820   41.2600   42.5600 O   0  0  0  0  0  0  0  0  0  0  0  0
  2  5  1  0
  3 12  2  0
  4 11  1  0
  4  8  1  0
  7  4  2  0
 10  9  1  0
 10  6  1  0
 11  1  1  0
 11  5  1  0
 12 10  1  0
 12  2  1  0
 13 10  1  0
M  END
$$$$
