
     RDKit          3D

  8  9  0  0  0  0  0  0  0  0999 V2000
   70.1720   41.2390   42.8950 C   0  0  0  0  0  0  0  0  0  0  0  0
   71.4590   41.6520   42.6870 C   0  0  0  0  0  0  0  0  0  0  0  0
   70.1290   40.7290   44.1780 C   0  0  0  0  0  0  0  0  0  0  0  0
   71.5770   40.6860   44.5150 C   0  0  0  0  0  0  0  0  0  0  0  0
   69.2320   41.0430   41.8590 O   0  0  0  0  0  0  0  0  0  0  0  0
   70.2470   40.7460   45.4450 C   0  0  0  0  0  0  0  0  0  0  0  0
   68.6770   40.4710   44.2260 O   0  0  0  0  0  0  0  0  0  0  0  0
   72.3670   41.7690   43.5020 C   0  0  0  0  0  0  0  0  0  0  0  0
  1  3  1  0
  2  1  2  0
  2  8  1  0
  3  7  1  0
  3  4  1  0
  3  6  1  0
  4  8  1  0
  4  6  1  0
  5  1  1  0
M  END
$$$$

     RDKit          3D

 21 20  0  0  0  0  0  0  0  0999 V2000
   71.9230   45.0700   44.3990 C   0  0  0  0  0  0  0  0  0  0  0  0
   69.5060   40.6560   47.3760 C   0  0  0  0  0  0  0  0  0  0  0  0
   71.7460   42.7300   45.3950 C   0  0  0  0  0  0  0  0  0  0  0  0
   65.3400   41.0940   55.1230 C   0  0  0  0  0  0  0  0  0  0  0  0
   65.6370   40.5930   51.1640 C   0  0  0  0  0  0  0  0  0  0  0  0
   64.8830   41.7370   53.9000 C   0  0  0  0  0  0  0  0  0  0  0  0
   67.5160   39.2990   49.1750 C   0  0  0  0  0  0  0  0  0  0  0  0
   73.1200   42.7620   45.0010 O   0  0  0  0  0  0  0  0  0  0  0  0
   68.4800   41.4390   48.2670 C   0  0  0  0  0  0  0  0  0  0  0  0
   66.0440   41.2920   49.8340 C   0  0  0  0  0  0  0  0  0  0  0  0
   72.4730   43.8930   42.1000 O   0  0  0  0  0  0  0  0  0  0  0  0
   64.3720   40.5410   51.8340 N   0  0  0  0  0  0  0  0  0  0  0  0
   74.2670   45.5350   43.2970 C   0  0  0  0  0  0  0  0  0  0  0  0
   63.8970   41.2790   52.9460 C   0  0  0  0  0  0  0  0  0  0  0  0
   72.7910   44.8270   43.2050 S   0  0  0  0  0  0  0  0  0  0  0  0
   70.4820   41.5900   46.7870 O   0  0  0  0  0  0  0  0  0  0  0  0
   62.6990   40.9860   53.6600 O   0  0  0  0  0  0  0  0  0  0  0  0
   71.1470   41.3690   45.4930 C   0  0  0  0  0  0  0  0  0  0  0  0
   67.3110   40.7730   49.1200 C   0  0  0  0  0  0  0  0  0  0  0  0
   66.6240   40.2150   51.7580 O   0  0  0  0  0  0  0  0  0  0  0  0
   70.9550   43.7060   44.5240 C   0  0  0  0  0  0  0  0  0  0  0  0
  1 21  1  0
  2  9  1  0
  3  8  1  0
  3 18  1  0
  5 20  2  0
  5 12  1  0
  6  4  1  0
  9 19  2  3
 10  5  1  0
 11 15  2  0
 12 14  1  0
 14 17  2  0
 14  6  1  0
 15 13  1  0
 15  1  1  0
 16  2  1  0
 18 16  1  0
 19  7  1  0
 19 10  1  0
 21  3  1  0
M  END
$$$$

     RDKit          3D

 14 13  0  0  0  0  0  0  0  0999 V2000
   68.0960   40.2630   45.2530 C   0  0  0  0  0  0  0  0  0  0  0  0
   67.8880   39.1980   45.5950 C   0  0  0  0  0  0  0  0  0  0  0  0
   70.8810   44.3750   44.3180 C   0  0  0  0  0  0  0  0  0  0  0  0
   69.0840   37.0600   44.3240 C   0  0  0  0  0  0  0  0  0  0  0  0
   69.5630   40.7790   43.2840 O   0  0  0  0  0  0  0  0  0  0  0  0
   68.4770   37.9300   44.8740 C   0  0  0  0  0  0  0  0  0  0  0  0
   69.2640   44.3340   43.1010 N   0  0  0  0  0  0  0  0  0  0  0  0
   71.4880   44.8080   43.2500 O   0  0  0  0  0  0  0  0  0  0  0  0
   66.5890   38.6880   46.2100 C   0  0  0  0  0  0  0  0  0  0  0  0
   69.6810   43.4180   44.0790 C   0  0  0  0  0  0  0  0  0  0  0  0
   65.7870   39.7820   46.6590 O   0  0  0  0  0  0  0  0  0  0  0  0
   68.3590   42.5660   44.4440 C   0  0  0  0  0  0  0  0  0  0  0  0
   71.6500   44.2920   45.3670 O   0  0  0  0  0  0  0  0  0  0  0  0
   68.5780   41.1130   43.9580 C   0  0  0  0  0  0  0  0  0  0  0  0
  1  2  1  0
  2  6  1  0
  2  9  1  0
  3 13  1  0
  4  6  3  0
  5 14  2  0
  8  3  2  0
  9 11  1  0
 10  7  1  0
 10  3  1  0
 10 12  1  0
 14 12  1  0
 14  1  1  0
M  END
$$$$

     RDKit          3D

  8  7  0  0  0  0  0  0  0  0999 V2000
   66.5570   40.0580   47.0000 O   0  0  0  0  0  0  0  0  0  0  0  0
   67.9180   41.2620   48.2000 O   0  0  0  0  0  0  0  0  0  0  0  0
   70.5320   40.4580   44.4990 O   0  0  0  0  0  0  0  0  0  0  0  0
   68.7290   40.5940   46.0290 C   0  0  0  0  0  0  0  0  0  0  0  0
   69.1320   39.1120   45.9360 C   0  0  0  0  0  0  0  0  0  0  0  0
   69.6560   41.1340   45.0190 C   0  0  0  0  0  0  0  0  0  0  0  0
   67.7510   40.7220   47.1490 C   0  0  0  0  0  0  0  0  0  0  0  0
   70.1810   42.2800   44.9410 O   0  0  0  0  0  0  0  0  0  0  0  0
  1  7  2  0
  3  6  2  0
  4  7  1  0
  5  4  1  0
  6  4  1  0
  7  2  1  0
  8  6  1  0
M  END
$$$$

     RDKit          3D

 10  9  0  0  0  0  0  0  0  0999 V2000
   67.6360   41.7310   46.3860 C   0  0  0  0  0  0  0  0  0  0  0  0
   66.5030   40.7750   45.8850 C   0  0  0  0  0  0  0  0  0  0  0  0
   63.6160   39.5330   48.1180 C   0  0  0  0  0  0  0  0  0  0  0  0
   64.7070   40.5160   47.6370 C   0  0  0  0  0  0  0  0  0  0  0  0
   70.2950   43.8320   44.7880 C   0  0  0  0  0  0  0  0  0  0  0  0
   70.8030   43.5010   43.1680 C   0  0  0  0  0  0  0  0  0  0  0  0
   64.1710   41.8880   47.2960 N   0  0  0  0  0  0  0  0  0  0  0  0
   68.9930   43.1080   44.7340 C   0  0  0  0  0  0  0  0  0  0  0  0
   68.7720   41.8430   45.3940 C   0  0  0  0  0  0  0  0  0  0  0  0
   65.8310   40.2150   47.1400 C   0  0  0  0  0  0  0  0  0  0  0  0
  2  1  1  0
  2 10  1  0
  4  3  1  0
  6  5  1  0
  7  4  1  0
  8  5  1  0
  8  9  1  0
  9  1  1  0
 10  4  1  0
M  END
$$$$

     RDKit          3D

 12 11  0  0  0  0  0  0  0  0999 V2000
   68.9170   42.5360   44.6270 N   0  0  0  0  0  0  0  0  0  0  0  0
   69.4630   44.8250   43.5670 O   0  0  0  0  0  0  0  0  0  0  0  0
   67.7130   39.2780   43.2780 C   0  0  0  0  0  0  0  0  0  0  0  0
   67.6210   39.2890   45.3840 O   0  0  0  0  0  0  0  0  0  0  0  0
   68.2860   39.9760   44.4920 C   0  0  0  0  0  0  0  0  0  0  0  0
   67.8210   38.0240   43.1400 O   0  0  0  0  0  0  0  0  0  0  0  0
   70.1540   42.8990   45.2160 O   0  0  0  0  0  0  0  0  0  0  0  0
   70.6140   44.1730   44.4540 P   0  0  0  0  0  0  0  0  0  0  0  0
   67.8820   41.4880   44.5820 C   0  0  0  0  0  0  0  0  0  0  0  0
   71.6520   43.6080   43.4840 O   0  0  0  0  0  0  0  0  0  0  0  0
   66.9510   42.2270   44.7030 O   0  0  0  0  0  0  0  0  0  0  0  0
   71.3250   45.0430   45.4660 O   0  0  0  0  0  0  0  0  0  0  0  0
  1  7  1  0
  2  8  1  0
  3  5  1  0
  5  9  1  0
  5  4  1  0
  6  3  2  0
  8  7  1  0
  8 12  1  0
  9  1  1  0
  9 11  2  0
 10  8  2  0
M  END
$$$$

     RDKit          3D

 22 23  0  0  0  0  0  0  0  0999 V2000
   70.4560   43.2890   43.7400 C   0  0  0  0  0  0  0  0  0  0  0  0
   72.9230   43.1160   43.2650 C   0  0  0  0  0  0  0  0  0  0  0  0
   69.2870   41.2510   44.8830 C   0  0  0  0  0  0  0  0  0  0  0  0
   63.2360   37.8700   49.5480 C   0  0  0  0  0  0  0  0  0  0  0  0
   71.6300   43.9220   43.1590 C   0  0  0  0  0  0  0  0  0  0  0  0
   73.3460   47.6770   42.1530 S   0  0  0  0  0  0  0  0  0  0  0  0
   62.3210   36.5710   53.1820 O   0  0  0  0  0  0  0  0  0  0  0  0
   67.2140   40.1340   47.8450 C   0  0  0  0  0  0  0  0  0  0  0  0
   61.8390   38.9340   53.2280 C   0  0  0  0  0  0  0  0  0  0  0  0
   74.1480   47.4170   40.5610 C   0  0  0  0  0  0  0  0  0  0  0  0
   64.2390   38.7120   50.1800 C   0  0  0  0  0  0  0  0  0  0  0  0
   65.0540   39.7070   49.2290 C   0  0  0  0  0  0  0  0  0  0  0  0
   68.3630   42.0390   46.0180 C   0  0  0  0  0  0  0  0  0  0  0  0
   64.8310   38.4570   51.5020 C   0  0  0  0  0  0  0  0  0  0  0  0
   62.6560   37.5820   52.6650 C   0  0  0  0  0  0  0  0  0  0  0  0
   67.4510   40.9970   46.6920 C   0  0  0  0  0  0  0  0  0  0  0  0
   66.2180   40.2900   48.7890 C   0  0  0  0  0  0  0  0  0  0  0  0
   73.0710   46.4450   40.7020 C   0  0  0  0  0  0  0  0  0  0  0  0
   64.0110   38.2900   52.7940 C   0  0  0  0  0  0  0  0  0  0  0  0
   72.4290   46.2010   41.9400 C   0  0  0  0  0  0  0  0  0  0  0  0
   70.5500   42.1710   44.8090 C   0  0  0  0  0  0  0  0  0  0  0  0
   71.5230   44.9230   42.0740 C   0  0  0  0  0  0  0  0  0  0  0  0
  1 21  1  0
  3 13  1  0
  5  2  1  0
  5  1  1  0
  6 10  1  0
  8 17  1  0
 11  4  1  0
 11 14  1  0
 12 11  1  0
 13 16  1  0
 14 19  1  0
 15 19  1  0
 15  7  1  0
 15  9  1  0
 16  8  1  0
 17 12  1  0
 18 10  1  0
 18 20  1  0
 18  6  1  0
 20 22  1  0
 20  6  1  0
 21  3  1  0
 22  5  1  0
M  END
$$$$

     RDKit          3D

 12 12  0  0  0  0  0  0  0  0999 V2000
   64.7500   39.5350   45.7420 C   0  0  0  0  0  0  0  0  0  0  0  0
   69.3280   41.1370   44.2320 O   0  0  0  0  0  0  0  0  0  0  0  0
   66.5390   38.7950   45.6320 O   0  0  0  0  0  0  0  0  0  0  0  0
   63.2400   38.4350   46.5580 O   0  0  0  0  0  0  0  0  0  0  0  0
   67.1560   41.3200   45.2410 C   0  0  0  0  0  0  0  0  0  0  0  0
   68.4720   43.0530   44.9520 O   0  0  0  0  0  0  0  0  0  0  0  0
   67.0310   39.9320   45.2190 C   0  0  0  0  0  0  0  0  0  0  0  0
   64.2100   38.3440   45.6130 C   0  0  0  0  0  0  0  0  0  0  0  0
   68.4570   41.7490   44.7170 C   0  0  0  0  0  0  0  0  0  0  0  0
   65.1820   40.4970   46.5450 C   0  0  0  0  0  0  0  0  0  0  0  0
   63.6760   37.7360   44.8410 O   0  0  0  0  0  0  0  0  0  0  0  0
   66.5350   40.9860   46.2620 C   0  0  0  0  0  0  0  0  0  0  0  0
  1 10  1  0
  2  9  2  0
  5  9  1  0
  5 12  1  0
  7  5  1  0
  7  3  1  0
  7 12  1  0
  8  1  1  0
  8  4  1  0
  9  6  1  0
 11  8  1  0
 12 10  1  0
M  END
$$$$

     RDKit          3D

 12 11  0  0  0  0  0  0  0  0999 V2000
   66.3800   41.5470   47.1160 C   0  0  0  0  0  0  0  0  0  0  0  0
   64.4080   39.8860   48.9280 N   0  0  0  0  0  0  0  0  0  0  0  0
   69.5290   44.2870   44.6820 C   0  0  0  0  0  0  0  0  0  0  0  0
   73.5760   45.2710   42.6810 O   0  0  0  0  0  0  0  0  0  0  0  0
   69.0670   43.3010   45.4930 C   0  0  0  0  0  0  0  0  0  0  0  0
   65.4850   40.4420   46.8130 C   0  0  0  0  0  0  0  0  0  0  0  0
   72.4050   44.5350   42.4520 C   0  0  0  0  0  0  0  0  0  0  0  0
   72.0130   43.6790   43.7080 C   0  0  0  0  0  0  0  0  0  0  0  0
   70.7920   44.3080   44.1480 C   0  0  0  0  0  0  0  0  0  0  0  0
   67.7110   42.7270   45.3690 C   0  0  0  0  0  0  0  0  0  0  0  0
   64.1450   40.4050   47.5370 C   0  0  0  0  0  0  0  0  0  0  0  0
   67.6640   41.5580   46.2980 C   0  0  0  0  0  0  0  0  0  0  0  0
  3  5  1  0
  6  1  1  0
  6 11  1  0
  7  4  1  0
  7  8  1  0
  8  9  1  0
  9  3  1  0
 10  5  1  0
 10 12  1  0
 11  2  1  0
 12  1  1  0
M  END
$$$$

     RDKit          3D

 18 18  0  0  0  0  0  0  0  0999 V2000
   68.9710   42.8970   44.5710 C   0  0  0  0  0  0  0  0  0  0  0  0
   62.7350   39.6360   51.1300 C   0  0  0  0  0  0  0  0  0  0  0  0
   66.9890   42.7310   47.3140 C   0  0  0  0  0  0  0  0  0  0  0  0
   65.4680   42.2550   49.4050 C   0  0  0  0  0  0  0  0  0  0  0  0
   62.7580   42.1970   51.2330 C   0  0  0  0  0  0  0  0  0  0  0  0
   70.3400   42.5140   42.4970 O   0  0  0  0  0  0  0  0  0  0  0  0
   70.6700   40.9700   44.2130 O   0  0  0  0  0  0  0  0  0  0  0  0
   63.3500   43.3530   50.4250 C   0  0  0  0  0  0  0  0  0  0  0  0
   67.5830   43.3980   44.9670 C   0  0  0  0  0  0  0  0  0  0  0  0
   70.4780   42.0790   43.6210 P   0  0  0  0  0  0  0  0  0  0  0  0
   65.9470   43.1750   48.2670 C   0  0  0  0  0  0  0  0  0  0  0  0
   64.8610   43.3510   50.3430 C   0  0  0  0  0  0  0  0  0  0  0  0
   67.1160   43.5010   46.1660 N   0  0  0  0  0  0  0  0  0  0  0  0
   71.4000   43.2820   43.4050 O   0  0  0  0  0  0  0  0  0  0  0  0
   63.9880   39.5020   51.6780 C   0  0  0  0  0  0  0  0  0  0  0  0
   62.0340   41.0680   50.3420 C   0  0  0  0  0  0  0  0  0  0  0  0
   61.8150   38.7970   50.9460 O   0  0  0  0  0  0  0  0  0  0  0  0
   69.5710   43.5620   45.4340 O   0  0  0  0  0  0  0  0  0  0  0  0
  1  9  1  0
  1 18  2  0
  2 15  1  0
  3 11  2  3
  4 12  1  0
  6 14  1  0
  6 10  1  0
  8  5  1  0
  9 13  1  0
 10  7  2  0
 10  1  1  0
 11  4  1  0
 12  8  1  0
 13  3  1  0
 14 10  1  0
 16  2  1  0
 16  5  1  0
 17  2  2  0
M  END
$$$$

     RDKit          3D

 13 13  0  0  0  0  0  0  0  0999 V2000
   64.3750   39.8180   50.4490 C   0  0  0  0  0  0  0  0  0  0  0  0
   66.1210   42.4230   49.5830 O   0  0  0  0  0  0  0  0  0  0  0  0
   62.2200   38.7220   51.3820 O   0  0  0  0  0  0  0  0  0  0  0  0
   66.6780   40.3280   47.0210 C   0  0  0  0  0  0  0  0  0  0  0  0
   63.5510   39.1650   51.4210 C   0  0  0  0  0  0  0  0  0  0  0  0
   64.1990   38.5440   50.4290 C   0  0  0  0  0  0  0  0  0  0  0  0
   65.9100   40.1680   48.3260 C   0  0  0  0  0  0  0  0  0  0  0  0
   65.5330   40.5190   50.7320 C   0  0  0  0  0  0  0  0  0  0  0  0
   67.5590   42.8870   45.1480 O   0  0  0  0  0  0  0  0  0  0  0  0
   67.8230   41.8550   45.6250 C   0  0  0  0  0  0  0  0  0  0  0  0
   65.8820   41.3240   49.3360 C   0  0  0  0  0  0  0  0  0  0  0  0
   68.5890   40.9800   45.0220 O   0  0  0  0  0  0  0  0  0  0  0  0
   67.4760   41.5890   47.0410 C   0  0  0  0  0  0  0  0  0  0  0  0
  1  8  1  0
  1  5  1  0
  4 13  1  0
  4  7  1  0
  5  3  1  0
  6  1  1  0
  6  5  1  0
  7 11  1  0
  9 10  1  0
 10 13  1  0
 11  2  2  0
 11  8  1  0
 12 10  2  0
M  END
$$$$

     RDKit          3D

 19 18  0  0  0  0  0  0  0  0999 V2000
   61.5670   38.6460   50.7110 C   0  0  0  0  0  0  0  0  0  0  0  0
   69.3500   43.9100   44.0550 C   0  0  0  0  0  0  0  0  0  0  0  0
   60.2110   39.0320   50.0560 C   0  0  0  0  0  0  0  0  0  0  0  0
   70.1330   46.3600   43.1570 C   0  0  0  0  0  0  0  0  0  0  0  0
   67.8360   41.0200   47.2820 C   0  0  0  0  0  0  0  0  0  0  0  0
   62.7600   37.9980   50.0780 C   0  0  0  0  0  0  0  0  0  0  0  0
   66.1200   39.6260   48.7320 C   0  0  0  0  0  0  0  0  0  0  0  0
   65.0770   38.4230   48.7650 C   0  0  0  0  0  0  0  0  0  0  0  0
   71.1810   49.0940   40.8060 C   0  0  0  0  0  0  0  0  0  0  0  0
   71.4740   48.1380   41.8710 C   0  0  0  0  0  0  0  0  0  0  0  0
   71.8720   49.1780   39.6270 O   0  0  0  0  0  0  0  0  0  0  0  0
   66.9860   39.7860   47.4050 C   0  0  0  0  0  0  0  0  0  0  0  0
   61.7770   38.2400   52.2250 C   0  0  0  0  0  0  0  0  0  0  0  0
   64.2690   38.1490   50.0310 C   0  0  0  0  0  0  0  0  0  0  0  0
   70.4700   50.2550   41.6320 O   0  0  0  0  0  0  0  0  0  0  0  0
   71.2330   46.7710   42.1810 C   0  0  0  0  0  0  0  0  0  0  0  0
   68.2070   41.7910   46.0700 C   0  0  0  0  0  0  0  0  0  0  0  0
   70.2220   45.1890   44.1520 C   0  0  0  0  0  0  0  0  0  0  0  0
   69.1220   42.9730   45.3980 C   0  0  0  0  0  0  0  0  0  0  0  0
  1 13  1  0
  2 18  1  0
  2 19  2  3
  3  1  1  0
  4 18  1  0
  5 12  1  0
  6  1  1  0
  7  8  1  0
  8 14  1  0
  9 15  1  0
  9 10  1  0
 10 16  1  0
 11  9  2  0
 12  7  2  3
 14  6  1  0
 16  4  1  0
 17  5  2  3
 19 17  1  0
M  END
$$$$

     RDKit          3D

  8  7  0  0  0  0  0  0  0  0999 V2000
   67.9250   41.3010   44.4890 O   0  0  0  0  0  0  0  0  0  0  0  0
   69.1870   43.0490   45.0890 C   0  0  0  0  0  0  0  0  0  0  0  0
   69.3500   41.6640   44.4340 C   0  0  0  0  0  0  0  0  0  0  0  0
   69.8620   44.1000   44.3680 C   0  0  0  0  0  0  0  0  0  0  0  0
   69.9420   39.5190   45.5800 O   0  0  0  0  0  0  0  0  0  0  0  0
   70.1200   40.7800   45.5860 C   0  0  0  0  0  0  0  0  0  0  0  0
   70.1570   44.1970   43.2510 O   0  0  0  0  0  0  0  0  0  0  0  0
   69.9750   45.2800   44.9330 O   0  0  0  0  0  0  0  0  0  0  0  0
  3  1  1  0
  3  2  1  0
  3  6  1  0
  4  8  1  0
  4  2  1  0
  5  6  2  0
  7  4  2  0
M  END
$$$$

     RDKit          3D

 11 11  0  0  0  0  0  0  0  0999 V2000
   68.9310   41.7090   45.3950 C   0  0  0  0  0  0  0  0  0  0  0  0
   67.4510   41.7550   43.9450 O   0  0  0  0  0  0  0  0  0  0  0  0
   67.8860   41.2280   46.0470 C   0  0  0  0  0  0  0  0  0  0  0  0
   66.5500   40.1600   47.8040 C   0  0  0  0  0  0  0  0  0  0  0  0
   67.7670   40.7690   47.5010 C   0  0  0  0  0  0  0  0  0  0  0  0
   69.7440   42.2770   43.0910 C   0  0  0  0  0  0  0  0  0  0  0  0
   70.6900   43.4160   43.5390 C   0  0  0  0  0  0  0  0  0  0  0  0
   70.4440   41.3980   45.9600 C   0  0  0  0  0  0  0  0  0  0  0  0
   68.6830   41.8650   44.1830 N   0  0  0  0  0  0  0  0  0  0  0  0
   66.8580   41.2050   45.0730 C   0  0  0  0  0  0  0  0  0  0  0  0
   66.4130   38.8120   47.3180 O   0  0  0  0  0  0  0  0  0  0  0  0
  1  8  1  0
  1  3  1  0
  2  9  1  0
  2 10  1  0
  3  5  1  0
  5  4  1  0
  6  7  1  0
  6  9  1  0
  9  1  1  0
 10  3  1  0
 11  4  1  0
M  END
$$$$

     RDKit          3D

 11 10  0  0  0  0  0  0  0  0999 V2000
   69.0650   41.9800   44.4480 C   0  0  0  0  0  0  0  0  0  0  0  0
   68.1350   40.7020   44.6420 C   0  0  0  0  0  0  0  0  0  0  0  0
   67.5530   39.1690   45.8590 N   0  0  0  0  0  0  0  0  0  0  0  0
   66.5330   41.1370   46.6130 C   0  0  0  0  0  0  0  0  0  0  0  0
   66.1040   42.2950   46.0310 O   0  0  0  0  0  0  0  0  0  0  0  0
   70.5870   41.9660   44.7330 C   0  0  0  0  0  0  0  0  0  0  0  0
   65.9330   40.7510   47.6320 O   0  0  0  0  0  0  0  0  0  0  0  0
   71.6220   42.4870   43.6720 C   0  0  0  0  0  0  0  0  0  0  0  0
   72.1230   41.5610   42.5080 C   0  0  0  0  0  0  0  0  0  0  0  0
   67.7430   40.4340   46.1130 C   0  0  0  0  0  0  0  0  0  0  0  0
   70.9470   40.6210   45.4970 C   0  0  0  0  0  0  0  0  0  0  0  0
  1  2  1  0
  1  6  1  0
  2 10  1  0
  4  7  1  0
  5  4  2  0
  6 11  1  0
  8  6  1  0
  9  8  1  0
 10  3  1  0
 10  4  1  0
M  END
$$$$

     RDKit          3D

 10  9  0  0  0  0  0  0  0  0999 V2000
   68.9170   42.1950   43.7040 C   0  0  0  0  0  0  0  0  0  0  0  0
   67.9060   42.7520   45.7850 O   0  0  0  0  0  0  0  0  0  0  0  0
   66.2950   40.6920   45.5490 O   0  0  0  0  0  0  0  0  0  0  0  0
   67.6790   40.0200   43.3700 O   0  0  0  0  0  0  0  0  0  0  0  0
   68.0960   41.0260   44.1420 C   0  0  0  0  0  0  0  0  0  0  0  0
   68.9540   42.7730   44.9970 C   0  0  0  0  0  0  0  0  0  0  0  0
   65.8830   41.0070   47.0450 C   0  0  0  0  0  0  0  0  0  0  0  0
   69.8460   44.3360   43.5660 O   0  0  0  0  0  0  0  0  0  0  0  0
   69.8260   43.0300   44.4190 C   0  0  0  0  0  0  0  0  0  0  0  0
   67.1100   41.7570   45.0310 C   0  0  0  0  0  0  0  0  0  0  0  0
  3  7  1  0
  4  5  1  0
  6  1  1  0
  6  2  1  0
  8  9  1  0
  9  6  1  0
 10  5  1  0
 10  3  1  0
 10  2  1  0
M  END
$$$$

     RDKit          3D

  7  6  0  0  0  0  0  0  0  0999 V2000
   67.4570   42.2910   45.4960 O   0  0  0  0  0  0  0  0  0  0  0  0
   70.1540   42.1320   45.0690 C   0  0  0  0  0  0  0  0  0  0  0  0
   67.6830   40.5940   46.8940 O   0  0  0  0  0  0  0  0  0  0  0  0
   67.9620   41.0650   46.1490 C   0  0  0  0  0  0  0  0  0  0  0  0
   70.8670   39.1500   44.4260 C   0  0  0  0  0  0  0  0  0  0  0  0
   69.6730   39.5720   45.2740 C   0  0  0  0  0  0  0  0  0  0  0  0
   69.4500   41.0910   45.0200 C   0  0  0  0  0  0  0  0  0  0  0  0
  1  4  2  0
  4  3  1  0
  5  6  1  0
  7  2  1  0
  7  6  1  0
  7  4  1  0
M  END
$$$$

     RDKit          3D

  5  4  0  0  0  0  0  0  0  0999 V2000
   69.0130   42.3000   43.3390 N   0  0  0  0  0  0  0  0  0  0  0  0
   69.7720   41.6070   44.4930 C   0  0  0  0  0  0  0  0  0  0  0  0
   68.4920   40.7970   46.3510 C   0  0  0  0  0  0  0  0  0  0  0  0
   68.8320   42.7350   45.8270 N   0  0  0  0  0  0  0  0  0  0  0  0
   68.5290   41.5910   45.2750 C   0  0  0  0  0  0  0  0  0  0  0  0
  1  2  1  0
  2  5  1  0
  5  4  1  0
  5  3  1  0
M  END
$$$$

     RDKit          3D

 10  9  0  0  0  0  0  0  0  0999 V2000
   70.4440   40.6820   45.8860 O   0  0  0  0  0  0  0  0  0  0  0  0
   68.7240   43.5930   43.6900 O   0  0  0  0  0  0  0  0  0  0  0  0
   70.1900   42.6370   41.5400 F   0  0  0  0  0  0  0  0  0  0  0  0
   68.9650   42.7580   42.0360 C   0  0  0  0  0  0  0  0  0  0  0  0
   69.7360   40.7190   44.8460 C   0  0  0  0  0  0  0  0  0  0  0  0
   68.8070   39.9110   44.7240 O   0  0  0  0  0  0  0  0  0  0  0  0
   68.2550   41.5510   41.7990 O   0  0  0  0  0  0  0  0  0  0  0  0
   70.1650   41.5660   43.7140 C   0  0  0  0  0  0  0  0  0  0  0  0
   71.5560   41.9090   43.8060 O   0  0  0  0  0  0  0  0  0  0  0  0
   69.0050   42.4090   43.4390 C   0  0  0  0  0  0  0  0  0  0  0  0
  4  3  1  0
  4 10  1  0
  5  1  1  0
  6  5  2  0
  7  4  1  0
  8  9  1  0
  8  5  1  0
 10  2  1  0
 10  8  1  0
M  END
$$$$

     RDKit          3D

  9  9  0  0  0  0  0  0  0  0999 V2000
   66.5820   39.2240   47.3880 O   0  0  0  0  0  0  0  0  0  0  0  0
   65.8960   41.3070   48.0300 O   0  0  0  0  0  0  0  0  0  0  0  0
   64.3600   38.4930   48.3570 O   0  0  0  0  0  0  0  0  0  0  0  0
   64.3130   40.7740   51.2650 C   0  0  0  0  0  0  0  0  0  0  0  0
   65.0310   39.4210   49.1360 C   0  0  0  0  0  0  0  0  0  0  0  0
   63.4010   41.3010   49.2430 C   0  0  0  0  0  0  0  0  0  0  0  0
   65.9480   40.1090   48.0590 C   0  0  0  0  0  0  0  0  0  0  0  0
   62.4740   39.9070   49.7980 C   0  0  0  0  0  0  0  0  0  0  0  0
   63.9600   40.2170   49.9080 N   0  0  0  0  0  0  0  0  0  0  0  0
  1  7  2  0
  2  7  1  0
  5  3  1  0
  5  9  1  0
  6  8  1  0
  6  9  1  0
  7  5  1  0
  8  9  1  0
  9  4  1  0
M  END
$$$$
