
     RDKit          3D

 13 13  0  0  0  0  0  0  0  0999 V2000
   38.1360   36.2280   31.9090 P   0  0  0  0  0  0  0  0  0  0  0  0
   41.2860   38.7010   31.8070 C   0  0  0  0  0  0  0  0  0  0  0  0
   42.0420   38.4420   30.5900 O   0  0  0  0  0  0  0  0  0  0  0  0
   42.8000   40.4960   32.1020 O   0  0  0  0  0  0  0  0  0  0  0  0
   40.6690   40.9400   32.5350 O   0  0  0  0  0  0  0  0  0  0  0  0
   36.8170   36.8470   31.2150 O   0  0  0  0  0  0  0  0  0  0  0  0
   39.7610   38.5510   31.6630 C   0  0  0  0  0  0  0  0  0  0  0  0
   39.3590   37.4570   32.4950 C   0  0  0  0  0  0  0  0  0  0  0  0
   37.8090   35.5320   33.2750 O   0  0  0  0  0  0  0  0  0  0  0  0
   38.9830   35.2550   30.9380 O   0  0  0  0  0  0  0  0  0  0  0  0
   41.5650   40.0850   32.2680 C   0  0  0  0  0  0  0  0  0  0  0  0
   38.8770   38.6750   33.0710 C   0  0  0  0  0  0  0  0  0  0  0  0
   39.2450   38.5840   30.3630 O   0  0  0  0  0  0  0  0  0  0  0  0
  1  9  1  0
  2  3  1  0
  2 11  1  0
  4 11  2  0
  6  1  1  0
  7 13  1  0
  7  2  1  0
  7  8  1  0
  7 12  1  0
  8  1  1  0
  8 12  1  0
 10  1  2  0
 11  5  1  0
M  END
$$$$

     RDKit          3D

 20 20  0  0  0  0  0  0  0  0999 V2000
   37.8470   35.7020   33.5530 C   0  0  0  0  0  0  0  0  0  0  0  0
   39.2550   39.9010   32.4840 C   0  0  0  0  0  0  0  0  0  0  0  0
   39.0840   36.3260   34.1140 C   0  0  0  0  0  0  0  0  0  0  0  0
   40.4160   39.6610   31.5160 C   0  0  0  0  0  0  0  0  0  0  0  0
   41.4880   40.5830   31.6450 O   0  0  0  0  0  0  0  0  0  0  0  0
   41.3070   38.1290   33.6650 N   0  0  0  0  0  0  0  0  0  0  0  0
   36.4160   33.7100   33.4710 O   0  0  0  0  0  0  0  0  0  0  0  0
   40.7270   36.7610   35.4320 N   0  0  0  0  0  0  0  0  0  0  0  0
   41.3860   37.9020   30.0680 O   0  0  0  0  0  0  0  0  0  0  0  0
   38.9580   35.8920   35.3540 N   0  0  0  0  0  0  0  0  0  0  0  0
   39.8850   36.0660   36.0880 N   0  0  0  0  0  0  0  0  0  0  0  0
   34.1690   33.1640   34.2780 N   0  0  0  0  0  0  0  0  0  0  0  0
   37.7770   34.1640   33.3770 C   0  0  0  0  0  0  0  0  0  0  0  0
   43.1200   38.9470   32.2690 C   0  0  0  0  0  0  0  0  0  0  0  0
   40.8810   38.2260   31.3520 C   0  0  0  0  0  0  0  0  0  0  0  0
   40.3590   37.1420   34.2790 C   0  0  0  0  0  0  0  0  0  0  0  0
   35.7370   34.2010   35.7430 N   0  0  0  0  0  0  0  0  0  0  0  0
   41.9690   37.9490   32.3990 C   0  0  0  0  0  0  0  0  0  0  0  0
   35.3960   33.8650   34.4830 C   0  0  0  0  0  0  0  0  0  0  0  0
   36.4030   35.1840   35.5830 O   0  0  0  0  0  0  0  0  0  0  0  0
  1  3  1  0
  3 16  1  0
  3 10  2  0
  4  5  1  0
  4  2  1  0
  6 16  1  0
  7 19  1  0
  8 11  1  0
 10 11  1  0
 12 19  2  0
 13  7  1  0
 13  1  1  0
 15  9  1  0
 15  4  1  0
 15 18  1  0
 16  8  2  0
 18 14  1  0
 18  6  1  0
 19 17  1  0
 20 17  1  0
M  END
$$$$

     RDKit          3D

 30 30  0  0  0  0  0  0  0  0999 V2000
   37.7210   34.4670   32.1450 O   0  0  0  0  0  0  0  0  0  0  0  0
   33.3420   30.6470   30.7100 C   0  0  0  0  0  0  0  0  0  0  0  0
   41.6760   40.2400   36.5730 C   0  0  0  0  0  0  0  0  0  0  0  0
   44.0070   39.3920   28.4400 C   0  0  0  0  0  0  0  0  0  0  0  0
   44.1940   39.9430   29.8500 C   0  0  0  0  0  0  0  0  0  0  0  0
   42.3330   39.3150   33.8970 N   0  0  0  0  0  0  0  0  0  0  0  0
   41.3310   39.4420   35.8380 N   0  0  0  0  0  0  0  0  0  0  0  0
   34.1230   31.9560   30.7170 C   0  0  0  0  0  0  0  0  0  0  0  0
   45.0700   40.9070   30.0220 O   0  0  0  0  0  0  0  0  0  0  0  0
   40.6400   37.9840   34.4590 C   0  0  0  0  0  0  0  0  0  0  0  0
   36.8390   33.8150   32.9730 C   0  0  0  0  0  0  0  0  0  0  0  0
   40.4000   37.2360   33.4960 N   0  0  0  0  0  0  0  0  0  0  0  0
   32.0800   30.8290   30.5680 O   0  0  0  0  0  0  0  0  0  0  0  0
   36.1620   34.7840   33.9930 C   0  0  0  0  0  0  0  0  0  0  0  0
   39.5380   37.5330   35.3720 C   0  0  0  0  0  0  0  0  0  0  0  0
   42.7410   38.7530   32.7010 C   0  0  0  0  0  0  0  0  0  0  0  0
   38.6980   35.3890   34.2260 C   0  0  0  0  0  0  0  0  0  0  0  0
   35.8350   33.2600   31.9660 C   0  0  0  0  0  0  0  0  0  0  0  0
   42.5320   40.8840   37.3820 C   0  0  0  0  0  0  0  0  0  0  0  0
   42.6700   40.7380   34.2010 C   0  0  0  0  0  0  0  0  0  0  0  0
   34.6570   31.4950   33.2460 C   0  0  0  0  0  0  0  0  0  0  0  0
   39.1370   36.8080   34.1350 C   0  0  0  0  0  0  0  0  0  0  0  0
   43.6570   38.0340   28.5650 O   0  0  0  0  0  0  0  0  0  0  0  0
   41.4470   38.8850   34.6600 C   0  0  0  0  0  0  0  0  0  0  0  0
   33.3650   29.7060   31.2360 O   0  0  0  0  0  0  0  0  0  0  0  0
   37.2560   35.5510   34.7550 C   0  0  0  0  0  0  0  0  0  0  0  0
   43.9050   39.5300   32.0140 C   0  0  0  0  0  0  0  0  0  0  0  0
   35.7060   34.1080   30.9690 O   0  0  0  0  0  0  0  0  0  0  0  0
   43.9030   38.9170   30.7350 N   0  0  0  0  0  0  0  0  0  0  0  0
   35.2910   31.8950   31.7790 C   0  0  0  0  0  0  0  0  0  0  0  0
  2  8  1  0
  2 25  1  0
  3 19  1  0
  4 23  1  0
  4  5  1  0
  5  9  2  0
  5 29  1  0
  6 20  1  0
  6 24  1  0
  7  3  1  0
  8 30  1  0
 10 24  2  3
 10 15  1  0
 11  1  1  0
 11 14  1  0
 12 22  1  0
 12 10  1  0
 13  2  2  0
 14 26  1  0
 16  6  1  0
 17 26  1  0
 18 28  1  0
 18 11  1  0
 22 17  1  0
 22 15  1  0
 24  7  1  0
 27 16  1  0
 29 27  1  0
 30 18  1  0
 30 21  1  0
M  END
$$$$

     RDKit          3D

 13 14  0  0  0  0  0  0  0  0999 V2000
   42.9130   39.2340   29.0320 C   0  0  0  0  0  0  0  0  0  0  0  0
   43.3100   38.7980   27.9420 F   0  0  0  0  0  0  0  0  0  0  0  0
   42.1120   42.0660   31.0600 O   0  0  0  0  0  0  0  0  0  0  0  0
   44.1650   37.6180   30.2700 O   0  0  0  0  0  0  0  0  0  0  0  0
   42.9410   38.3160   30.1760 C   0  0  0  0  0  0  0  0  0  0  0  0
   42.5720   40.6290   29.3790 C   0  0  0  0  0  0  0  0  0  0  0  0
   41.2860   41.3880   33.0860 C   0  0  0  0  0  0  0  0  0  0  0  0
   42.0000   41.2790   33.9260 O   0  0  0  0  0  0  0  0  0  0  0  0
   42.4040   38.6140   32.5150 O   0  0  0  0  0  0  0  0  0  0  0  0
   42.5980   40.6510   30.9060 C   0  0  0  0  0  0  0  0  0  0  0  0
   41.5760   40.9710   31.6940 C   0  0  0  0  0  0  0  0  0  0  0  0
   40.9980   40.6430   29.1670 O   0  0  0  0  0  0  0  0  0  0  0  0
   42.5140   39.1270   31.3040 C   0  0  0  0  0  0  0  0  0  0  0  0
  1  2  1  0
  1  6  1  0
  1  5  1  0
  3 11  1  0
  5  4  1  0
  5 13  1  0
  6 12  1  0
  6 10  1  0
  7  8  2  0
 10  3  1  0
 10 13  1  0
 10 11  1  0
 11  7  1  0
 13  9  1  0
M  END
$$$$

     RDKit          3D

 18 20  0  0  0  0  0  0  0  0999 V2000
   41.7520   40.0300   35.3080 C   0  0  0  0  0  0  0  0  0  0  0  0
   38.4920   34.0480   32.8180 C   0  0  0  0  0  0  0  0  0  0  0  0
   39.4130   36.0670   32.0600 C   0  0  0  0  0  0  0  0  0  0  0  0
   41.6490   38.5660   34.6860 C   0  0  0  0  0  0  0  0  0  0  0  0
   39.2210   33.7470   31.5040 C   0  0  0  0  0  0  0  0  0  0  0  0
   38.3410   35.5890   32.8840 C   0  0  0  0  0  0  0  0  0  0  0  0
   38.0700   32.7360   33.5440 C   0  0  0  0  0  0  0  0  0  0  0  0
   40.9580   40.3440   33.1240 C   0  0  0  0  0  0  0  0  0  0  0  0
   37.2310   34.7930   32.5250 C   0  0  0  0  0  0  0  0  0  0  0  0
   38.9650   38.6220   32.8110 O   0  0  0  0  0  0  0  0  0  0  0  0
   43.2530   40.0950   35.1700 O   0  0  0  0  0  0  0  0  0  0  0  0
   35.9520   35.0730   33.3650 C   0  0  0  0  0  0  0  0  0  0  0  0
   41.4150   38.9560   33.2580 C   0  0  0  0  0  0  0  0  0  0  0  0
   40.9760   40.7360   34.8300 C   0  0  0  0  0  0  0  0  0  0  0  0
   40.5270   36.6800   32.8760 C   0  0  0  0  0  0  0  0  0  0  0  0
   39.9990   35.0040   31.1590 C   0  0  0  0  0  0  0  0  0  0  0  0
   41.1210   41.1720   32.3140 O   0  0  0  0  0  0  0  0  0  0  0  0
   40.3610   38.1240   32.5660 C   0  0  0  0  0  0  0  0  0  0  0  0
  1 11  1  0
  2  6  1  0
  2  7  1  0
  3 15  1  0
  3  6  1  0
  4  1  1  0
  5  2  1  0
  8 13  1  0
  8 14  1  0
  9  2  1  0
  9  6  1  0
  9 12  1  0
 13  4  1  0
 14  1  1  0
 16  5  1  0
 16  3  1  0
 17  8  2  0
 18 10  1  0
 18 15  1  0
 18 13  1  0
M  END
$$$$

     RDKit          3D

  7  6  0  0  0  0  0  0  0  0999 V2000
   42.6700   40.0550   31.3870 C   0  0  0  0  0  0  0  0  0  0  0  0
   41.5170   41.0780   30.9550 C   0  0  0  0  0  0  0  0  0  0  0  0
   40.9720   40.5870   29.7000 C   0  0  0  0  0  0  0  0  0  0  0  0
   42.5850   39.7280   32.5970 N   0  0  0  0  0  0  0  0  0  0  0  0
   39.7790   40.6300   29.4790 O   0  0  0  0  0  0  0  0  0  0  0  0
   43.0940   38.8060   30.6600 C   0  0  0  0  0  0  0  0  0  0  0  0
   41.8570   39.8950   28.8710 O   0  0  0  0  0  0  0  0  0  0  0  0
  1  6  1  0
  1  4  1  0
  2  1  1  0
  3  2  1  0
  5  3  1  0
  7  3  2  0
M  END
$$$$

     RDKit          3D

 23 23  0  0  0  0  0  0  0  0999 V2000
   36.8250   35.7920   34.5860 C   0  0  0  0  0  0  0  0  0  0  0  0
   40.6010   37.8580   32.2810 C   0  0  0  0  0  0  0  0  0  0  0  0
   42.5520   37.7910   29.3510 C   0  0  0  0  0  0  0  0  0  0  0  0
   41.5250   38.6720   31.4290 C   0  0  0  0  0  0  0  0  0  0  0  0
   37.0650   33.3640   36.5130 C   0  0  0  0  0  0  0  0  0  0  0  0
   38.7080   34.7790   36.8210 C   0  0  0  0  0  0  0  0  0  0  0  0
   39.3810   38.3280   32.5750 O   0  0  0  0  0  0  0  0  0  0  0  0
   35.3900   33.9490   32.3240 C   0  0  0  0  0  0  0  0  0  0  0  0
   39.8260   40.8130   32.9640 C   0  0  0  0  0  0  0  0  0  0  0  0
   43.3490   40.0450   29.7650 O   0  0  0  0  0  0  0  0  0  0  0  0
   35.1100   35.3530   32.7920 C   0  0  0  0  0  0  0  0  0  0  0  0
   41.5210   39.4900   34.4710 O   0  0  0  0  0  0  0  0  0  0  0  0
   43.5580   40.2080   31.2090 C   0  0  0  0  0  0  0  0  0  0  0  0
   38.1910   37.7160   33.0110 C   0  0  0  0  0  0  0  0  0  0  0  0
   37.0460   37.0270   32.4620 C   0  0  0  0  0  0  0  0  0  0  0  0
   38.2140   34.0050   35.7630 C   0  0  0  0  0  0  0  0  0  0  0  0
   38.0080   34.8930   34.5460 C   0  0  0  0  0  0  0  0  0  0  0  0
   36.3550   36.1170   33.1760 C   0  0  0  0  0  0  0  0  0  0  0  0
   41.4850   40.5540   33.3510 S   0  0  0  0  0  0  0  0  0  0  0  0
   42.2920   39.8500   31.9810 C   0  0  0  0  0  0  0  0  0  0  0  0
   43.7930   38.7170   29.3540 C   0  0  0  0  0  0  0  0  0  0  0  0
   41.4730   38.2380   30.1150 C   0  0  0  0  0  0  0  0  0  0  0  0
   41.9580   41.9420   34.2160 C   0  0  0  0  0  0  0  0  0  0  0  0
  2  7  1  0
  3 21  1  0
  3 22  1  0
  4 20  1  0
  4  2  1  0
  7 14  1  0
  8 11  1  0
  9 19  1  0
 10 13  1  0
 11 18  1  0
 13 20  1  0
 15 14  1  0
 15 18  2  3
 16  5  1  0
 16  6  1  0
 17  1  1  0
 17 16  1  0
 18  1  1  0
 19 23  1  0
 19 12  1  0
 20 19  1  0
 21 10  1  0
 22  4  1  0
M  END
$$$$

     RDKit          3D

 28 30  0  0  0  0  0  0  0  0999 V2000
   42.7840   41.0450   30.3980 C   0  0  0  0  0  0  0  0  0  0  0  0
   35.9390   31.9830   31.1460 C   0  0  0  0  0  0  0  0  0  0  0  0
   34.8700   33.8740   33.9650 N   0  0  0  0  0  0  0  0  0  0  0  0
   34.8650   32.4520   32.0550 C   0  0  0  0  0  0  0  0  0  0  0  0
   35.9020   34.0990   34.9440 C   0  0  0  0  0  0  0  0  0  0  0  0
   36.7190   35.3000   34.7170 C   0  0  0  0  0  0  0  0  0  0  0  0
   35.3650   32.6000   33.4620 C   0  0  0  0  0  0  0  0  0  0  0  0
   35.6380   31.1970   30.1590 C   0  0  0  0  0  0  0  0  0  0  0  0
   33.3840   32.3950   31.8110 C   0  0  0  0  0  0  0  0  0  0  0  0
   38.3300   36.0870   33.0590 C   0  0  0  0  0  0  0  0  0  0  0  0
   41.1560   37.6430   30.9600 N   0  0  0  0  0  0  0  0  0  0  0  0
   39.7000   36.5700   36.7130 Cl  0  0  0  0  0  0  0  0  0  0  0  0
   34.3660   30.7000   30.1690 C   0  0  0  0  0  0  0  0  0  0  0  0
   43.4560   37.6910   29.0110 C   0  0  0  0  0  0  0  0  0  0  0  0
   42.5480   39.5600   30.6590 C   0  0  0  0  0  0  0  0  0  0  0  0
   41.5530   39.5700   31.7820 N   0  0  0  0  0  0  0  0  0  0  0  0
   33.2080   31.5850   30.5680 C   0  0  0  0  0  0  0  0  0  0  0  0
   35.7840   33.7710   36.2450 O   0  0  0  0  0  0  0  0  0  0  0  0
   37.1450   35.3990   33.3710 C   0  0  0  0  0  0  0  0  0  0  0  0
   37.3800   35.9750   35.7440 C   0  0  0  0  0  0  0  0  0  0  0  0
   42.9390   41.6370   31.6560 O   0  0  0  0  0  0  0  0  0  0  0  0
   40.8810   38.5850   31.6800 C   0  0  0  0  0  0  0  0  0  0  0  0
   42.4950   38.8020   29.2740 C   0  0  0  0  0  0  0  0  0  0  0  0
   38.6490   36.4720   35.4170 C   0  0  0  0  0  0  0  0  0  0  0  0
   40.0830   37.5950   32.1010 C   0  0  0  0  0  0  0  0  0  0  0  0
   42.7330   39.6060   28.2690 O   0  0  0  0  0  0  0  0  0  0  0  0
   38.9830   36.7910   34.1080 C   0  0  0  0  0  0  0  0  0  0  0  0
   40.0760   37.6520   33.7070 C   0  0  0  0  0  0  0  0  0  0  0  0
  1 21  1  0
  2  4  1  0
  3  5  1  0
  4  7  1  0
  5 18  2  0
  6  5  1  0
  6 20  1  0
  7  3  1  0
  8 13  1  0
  8  2  2  0
  9  4  1  0
 10 19  1  0
 10 27  2  0
 11 22  2  0
 11 25  1  0
 13 17  1  0
 15  1  1  0
 15 16  1  0
 17  9  1  0
 19  6  2  0
 22 16  1  0
 22 25  1  0
 23 14  1  0
 23 15  1  0
 24 20  2  0
 24 12  1  0
 25 28  1  0
 26 23  1  0
 27 24  1  0
 28 27  1  0
M  END
$$$$

     RDKit          3D

 15 17  0  0  0  0  0  0  0  0999 V2000
   42.7480   39.7690   31.5240 C   0  0  0  0  0  0  0  0  0  0  0  0
   39.4250   36.5770   32.0290 C   0  0  0  0  0  0  0  0  0  0  0  0
   35.7880   36.4880   33.1390 O   0  0  0  0  0  0  0  0  0  0  0  0
   41.4860   36.6920   30.3470 O   0  0  0  0  0  0  0  0  0  0  0  0
   41.4050   37.6070   31.1650 C   0  0  0  0  0  0  0  0  0  0  0  0
   36.9050   36.6610   32.2780 C   0  0  0  0  0  0  0  0  0  0  0  0
   42.4790   38.3150   31.6890 N   0  0  0  0  0  0  0  0  0  0  0  0
   38.2510   36.3720   32.9960 C   0  0  0  0  0  0  0  0  0  0  0  0
   38.6970   38.9230   32.1160 C   0  0  0  0  0  0  0  0  0  0  0  0
   43.0660   40.3080   29.1860 O   0  0  0  0  0  0  0  0  0  0  0  0
   36.9220   38.4400   31.9030 S   0  0  0  0  0  0  0  0  0  0  0  0
   40.0820   39.4690   31.7490 C   0  0  0  0  0  0  0  0  0  0  0  0
   41.2690   40.4370   31.6390 C   0  0  0  0  0  0  0  0  0  0  0  0
   40.0050   37.9280   31.8280 C   0  0  0  0  0  0  0  0  0  0  0  0
   43.7170   40.1230   30.4670 C   0  0  0  0  0  0  0  0  0  0  0  0
  1 15  1  0
  1 13  1  0
  1  7  1  0
  2  8  1  0
  4  5  2  0
  5  7  1  0
  5 14  1  0
  6  8  1  0
  6  3  1  0
  9 11  1  0
 10 15  1  0
 11  6  1  0
 12 13  1  0
 12 14  1  0
 12  9  1  0
 14  2  1  0
 14  9  1  0
M  END
$$$$

     RDKit          3D

 28 27  0  0  0  0  0  0  0  0999 V2000
   48.1010   41.4880   33.2370 O   0  0  0  0  0  0  0  0  0  0  0  0
   36.8440   33.5790   30.2730 C   0  0  0  0  0  0  0  0  0  0  0  0
   45.1350   41.0730   29.2740 C   0  0  0  0  0  0  0  0  0  0  0  0
   43.8790   41.1670   30.5570 N   0  0  0  0  0  0  0  0  0  0  0  0
   47.1650   43.3290   33.6750 O   0  0  0  0  0  0  0  0  0  0  0  0
   42.0660   37.6980   30.8020 C   0  0  0  0  0  0  0  0  0  0  0  0
   42.8500   40.2400   30.6410 C   0  0  0  0  0  0  0  0  0  0  0  0
   37.5610   35.4390   31.6320 N   0  0  0  0  0  0  0  0  0  0  0  0
   43.1790   38.7350   30.2890 C   0  0  0  0  0  0  0  0  0  0  0  0
   35.6530   32.8640   29.7150 C   0  0  0  0  0  0  0  0  0  0  0  0
   46.1840   41.9460   32.2060 N   0  0  0  0  0  0  0  0  0  0  0  0
   44.7710   41.9230   30.4190 C   0  0  0  0  0  0  0  0  0  0  0  0
   35.3510   35.2180   31.2520 O   0  0  0  0  0  0  0  0  0  0  0  0
   34.9440   32.1180   30.8520 C   0  0  0  0  0  0  0  0  0  0  0  0
   32.2730   31.5640   30.6310 C   0  0  0  0  0  0  0  0  0  0  0  0
   39.1400   37.1350   32.0670 C   0  0  0  0  0  0  0  0  0  0  0  0
   39.8490   37.9560   31.4830 C   0  0  0  0  0  0  0  0  0  0  0  0
   36.8990   37.2820   32.6060 O   0  0  0  0  0  0  0  0  0  0  0  0
   31.8090   30.1400   30.5110 C   0  0  0  0  0  0  0  0  0  0  0  0
   41.3690   38.1760   31.9230 C   0  0  0  0  0  0  0  0  0  0  0  0
   44.9500   41.9010   33.0680 C   0  0  0  0  0  0  0  0  0  0  0  0
   37.8040   36.5900   32.1420 C   0  0  0  0  0  0  0  0  0  0  0  0
   32.0540   31.8320   32.1150 C   0  0  0  0  0  0  0  0  0  0  0  0
   33.6920   31.5830   30.3520 N   0  0  0  0  0  0  0  0  0  0  0  0
   47.2300   42.1710   32.9730 C   0  0  0  0  0  0  0  0  0  0  0  0
   46.1010   42.2450   30.9630 C   0  0  0  0  0  0  0  0  0  0  0  0
   36.4460   34.8720   30.9560 C   0  0  0  0  0  0  0  0  0  0  0  0
   44.6090   38.1530   30.7400 C   0  0  0  0  0  0  0  0  0  0  0  0
  2 27  1  0
  4  7  1  0
  6 20  1  0
  8 22  1  0
  9  7  1  0
  9 28  1  0
  9  6  1  0
 10  2  1  0
 10 14  1  0
 11 25  1  0
 11 21  1  0
 12  3  1  0
 12  4  1  0
 12 26  1  0
 15 23  1  0
 16 22  1  0
 17 20  1  0
 17 16  2  3
 19 15  1  0
 22 18  2  0
 24 15  1  0
 24 14  1  0
 25  1  2  0
 25  5  1  0
 26 11  1  0
 27 13  2  0
 27  8  1  0
M  END
$$$$

     RDKit          3D

 12 13  0  0  0  0  0  0  0  0999 V2000
   41.8140   40.7230   33.6650 O   0  0  0  0  0  0  0  0  0  0  0  0
   40.1970   37.5170   35.5400 N   0  0  0  0  0  0  0  0  0  0  0  0
   41.8020   38.2860   33.7740 C   0  0  0  0  0  0  0  0  0  0  0  0
   41.2260   39.7470   35.8320 C   0  0  0  0  0  0  0  0  0  0  0  0
   38.0590   35.9460   35.7610 C   0  0  0  0  0  0  0  0  0  0  0  0
   39.2410   36.7520   36.2520 C   0  0  0  0  0  0  0  0  0  0  0  0
   41.9340   39.6690   34.5480 C   0  0  0  0  0  0  0  0  0  0  0  0
   39.0610   38.8310   36.4620 C   0  0  0  0  0  0  0  0  0  0  0  0
   40.6210   37.3940   34.1250 C   0  0  0  0  0  0  0  0  0  0  0  0
   38.6870   37.7320   37.2800 C   0  0  0  0  0  0  0  0  0  0  0  0
   40.5480   38.4580   36.1880 C   0  0  0  0  0  0  0  0  0  0  0  0
   37.5430   35.3630   37.0180 N   0  0  0  0  0  0  0  0  0  0  0  0
  2  9  1  0
  2 11  1  0
  2  6  1  0
  3  9  1  0
  3  7  1  0
  5 12  1  0
  6  5  1  0
  6 10  1  0
  7  1  1  0
  7  4  1  0
  8 10  1  0
 11  4  1  0
 11  8  1  0
M  END
$$$$

     RDKit          3D

 11 12  0  0  0  0  0  0  0  0999 V2000
   42.6750   39.6880   33.1980 C   0  0  0  0  0  0  0  0  0  0  0  0
   40.4170   40.4600   29.4410 C   0  0  0  0  0  0  0  0  0  0  0  0
   42.5170   39.9440   30.8000 C   0  0  0  0  0  0  0  0  0  0  0  0
   42.1410   36.4990   29.6500 O   0  0  0  0  0  0  0  0  0  0  0  0
   42.4210   38.4370   30.8060 C   0  0  0  0  0  0  0  0  0  0  0  0
   41.7700   37.8750   29.5620 C   0  0  0  0  0  0  0  0  0  0  0  0
   41.8570   39.0620   28.5600 C   0  0  0  0  0  0  0  0  0  0  0  0
   41.9270   40.3100   29.5900 C   0  0  0  0  0  0  0  0  0  0  0  0
   40.6130   39.7240   28.0770 C   0  0  0  0  0  0  0  0  0  0  0  0
   43.2630   37.7990   31.3900 O   0  0  0  0  0  0  0  0  0  0  0  0
   42.3640   40.5410   32.0350 O   0  0  0  0  0  0  0  0  0  0  0  0
  3  5  1  0
  3 11  1  0
  5 10  2  0
  6  4  1  0
  6  5  1  0
  7  9  1  0
  7  6  1  0
  7  8  1  0
  8  2  1  0
  8  3  1  0
  9  2  1  0
 11  1  1  0
M  END
$$$$

     RDKit          3D

 21 23  0  0  0  0  0  0  0  0999 V2000
   36.7800   36.6470   32.9040 N   0  0  0  0  0  0  0  0  0  0  0  0
   40.9440   38.5570   33.2280 C   0  0  0  0  0  0  0  0  0  0  0  0
   43.6010   40.9850   30.4850 C   0  0  0  0  0  0  0  0  0  0  0  0
   35.1480   35.1350   34.2870 C   0  0  0  0  0  0  0  0  0  0  0  0
   35.4810   33.3080   36.0120 C   0  0  0  0  0  0  0  0  0  0  0  0
   41.0910   37.6640   30.9890 C   0  0  0  0  0  0  0  0  0  0  0  0
   37.8920   33.8170   35.2120 C   0  0  0  0  0  0  0  0  0  0  0  0
   36.3990   35.5660   33.7760 C   0  0  0  0  0  0  0  0  0  0  0  0
   41.2700   38.6640   31.8960 C   0  0  0  0  0  0  0  0  0  0  0  0
   42.4980   38.9520   29.2940 C   0  0  0  0  0  0  0  0  0  0  0  0
   42.3410   40.1810   30.1880 C   0  0  0  0  0  0  0  0  0  0  0  0
   41.6320   37.7160   29.5920 C   0  0  0  0  0  0  0  0  0  0  0  0
   34.7840   34.4080   35.3950 C   0  0  0  0  0  0  0  0  0  0  0  0
   40.3020   36.4990   31.3790 C   0  0  0  0  0  0  0  0  0  0  0  0
   36.8960   33.0800   35.9050 C   0  0  0  0  0  0  0  0  0  0  0  0
   43.4410   42.4750   30.1420 C   0  0  0  0  0  0  0  0  0  0  0  0
   37.7450   34.8540   34.2240 C   0  0  0  0  0  0  0  0  0  0  0  0
   41.4530   40.0630   31.3400 C   0  0  0  0  0  0  0  0  0  0  0  0
   37.9430   36.2310   32.1090 C   0  0  0  0  0  0  0  0  0  0  0  0
   39.3410   36.7210   32.4460 C   0  0  0  0  0  0  0  0  0  0  0  0
   39.8080   37.6510   33.5490 C   0  0  0  0  0  0  0  0  0  0  0  0
  1  8  1  0
  2 21  1  0
  4 13  1  0
  6 14  2  0
  6  9  1  0
  7 15  1  0
  8 17  1  0
  8  4  2  0
  9  2  2  0
 10 12  1  0
 10 11  1  0
 11  3  1  0
 11 18  1  0
 12  6  1  0
 13  5  1  0
 14 20  1  0
 15  5  2  0
 16  3  1  0
 17  7  2  0
 18  9  1  0
 19 20  1  0
 19  1  1  0
 20 21  2  0
M  END
$$$$

     RDKit          3D

 10 10  0  0  0  0  0  0  0  0999 V2000
   41.4440   37.9640   30.2260 C   0  0  0  0  0  0  0  0  0  0  0  0
   39.5520   39.8440   29.0350 C   0  0  0  0  0  0  0  0  0  0  0  0
   41.3140   37.1070   31.4450 C   0  0  0  0  0  0  0  0  0  0  0  0
   39.8400   36.9770   31.6930 C   0  0  0  0  0  0  0  0  0  0  0  0
   38.6010   39.8060   28.5830 O   0  0  0  0  0  0  0  0  0  0  0  0
   40.9470   39.3370   30.5940 C   0  0  0  0  0  0  0  0  0  0  0  0
   40.8970   37.2870   29.1350 O   0  0  0  0  0  0  0  0  0  0  0  0
   40.2330   40.8640   28.7090 O   0  0  0  0  0  0  0  0  0  0  0  0
   39.6810   39.2900   30.3870 N   0  0  0  0  0  0  0  0  0  0  0  0
   39.0550   38.1790   31.2170 C   0  0  0  0  0  0  0  0  0  0  0  0
  1  7  1  0
  1  6  1  0
  1  3  1  0
  2  9  1  0
  3  4  1  0
  5  2  2  0
  8  2  1  0
  9  6  1  0
  9 10  1  0
 10  4  1  0
M  END
$$$$

     RDKit          3D

 18 19  0  0  0  0  0  0  0  0999 V2000
   41.4860   39.2940   31.2760 C   0  0  0  0  0  0  0  0  0  0  0  0
   42.9500   39.5570   31.1270 C   0  0  0  0  0  0  0  0  0  0  0  0
   40.7430   38.3300   30.5560 C   0  0  0  0  0  0  0  0  0  0  0  0
   40.8200   35.6650   30.4500 N   0  0  0  0  0  0  0  0  0  0  0  0
   43.0290   41.5300   29.3450 O   0  0  0  0  0  0  0  0  0  0  0  0
   39.5600   40.7770   31.4040 C   0  0  0  0  0  0  0  0  0  0  0  0
   44.2130   39.5560   30.4010 C   0  0  0  0  0  0  0  0  0  0  0  0
   41.4740   41.2940   32.5600 N   0  0  0  0  0  0  0  0  0  0  0  0
   42.7380   41.4660   31.9200 C   0  0  0  0  0  0  0  0  0  0  0  0
   40.9200   40.5900   31.5010 C   0  0  0  0  0  0  0  0  0  0  0  0
   43.3630   38.3450   30.2950 C   0  0  0  0  0  0  0  0  0  0  0  0
   41.0250   42.5000   33.3250 C   0  0  0  0  0  0  0  0  0  0  0  0
   42.5680   43.3290   30.5220 O   0  0  0  0  0  0  0  0  0  0  0  0
   42.6410   42.0230   30.5390 C   0  0  0  0  0  0  0  0  0  0  0  0
   39.3080   38.6110   30.2960 C   0  0  0  0  0  0  0  0  0  0  0  0
   38.8900   40.0480   30.2390 C   0  0  0  0  0  0  0  0  0  0  0  0
   40.9280   36.9070   30.5090 C   0  0  0  0  0  0  0  0  0  0  0  0
   43.5870   37.2880   31.1610 O   0  0  0  0  0  0  0  0  0  0  0  0
  1  2  1  0
  1 10  1  0
  2  7  1  0
  3 17  1  0
  3  1  1  0
  4 17  3  0
  5 14  2  0
  6 10  1  0
  8 12  1  0
  9  8  1  0
 10  8  1  0
 11  7  1  0
 11  2  1  0
 11 18  1  0
 13 14  1  0
 14  9  1  0
 15  3  1  0
 16 15  1  0
 16  6  1  0
M  END
$$$$

     RDKit          3D

 18 18  0  0  0  0  0  0  0  0999 V2000
   42.4730   41.1310   31.7470 N   0  0  0  0  0  0  0  0  0  0  0  0
   41.6460   41.5770   32.9580 C   0  0  0  0  0  0  0  0  0  0  0  0
   40.0330   36.7240   31.1730 C   0  0  0  0  0  0  0  0  0  0  0  0
   37.6200   37.4050   32.9130 C   0  0  0  0  0  0  0  0  0  0  0  0
   38.8790   37.6820   33.1380 C   0  0  0  0  0  0  0  0  0  0  0  0
   40.7800   39.7220   30.9970 C   0  0  0  0  0  0  0  0  0  0  0  0
   42.9200   39.6900   31.6400 C   0  0  0  0  0  0  0  0  0  0  0  0
   39.7120   39.1350   31.4570 N   0  0  0  0  0  0  0  0  0  0  0  0
   36.8210   37.6310   31.8630 C   0  0  0  0  0  0  0  0  0  0  0  0
   36.9870   36.6330   33.5510 N   0  0  0  0  0  0  0  0  0  0  0  0
   44.2370   39.6620   31.1340 O   0  0  0  0  0  0  0  0  0  0  0  0
   44.5660   40.9660   30.7150 C   0  0  0  0  0  0  0  0  0  0  0  0
   43.2680   41.7260   30.6680 C   0  0  0  0  0  0  0  0  0  0  0  0
   36.0630   35.5330   33.3820 C   0  0  0  0  0  0  0  0  0  0  0  0
   42.0290   39.0160   30.6690 C   0  0  0  0  0  0  0  0  0  0  0  0
   40.3570   40.8340   30.3460 O   0  0  0  0  0  0  0  0  0  0  0  0
   42.5890   37.7070   30.1710 O   0  0  0  0  0  0  0  0  0  0  0  0
   39.7300   37.9110   31.8950 C   0  0  0  0  0  0  0  0  0  0  0  0
  1  2  1  0
  4  5  1  0
  4 10  1  0
  6  8  1  0
  7 15  1  0
  7  1  1  0
  8 18  1  0
  9  4  2  0
 11  7  1  0
 12 11  1  0
 13 12  1  0
 13  1  1  0
 14 10  1  0
 15 17  1  0
 15  6  1  0
 16  6  2  0
 18  3  1  0
 18  5  1  0
M  END
$$$$

     RDKit          3D

 15 14  0  0  0  0  0  0  0  0999 V2000
   42.8460   40.1080   34.9500 C   0  0  0  0  0  0  0  0  0  0  0  0
   44.2510   39.1950   33.0960 O   0  0  0  0  0  0  0  0  0  0  0  0
   36.2110   35.6180   37.7600 C   0  0  0  0  0  0  0  0  0  0  0  0
   37.5110   34.7460   36.4830 O   0  0  0  0  0  0  0  0  0  0  0  0
   38.9610   36.5740   36.9610 C   0  0  0  0  0  0  0  0  0  0  0  0
   45.8660   38.6660   31.0560 O   0  0  0  0  0  0  0  0  0  0  0  0
   43.8610   40.2730   31.1410 O   0  0  0  0  0  0  0  0  0  0  0  0
   46.1540   40.6370   32.2510 O   0  0  0  0  0  0  0  0  0  0  0  0
   41.2910   37.7800   35.7870 C   0  0  0  0  0  0  0  0  0  0  0  0
   37.6130   35.8630   37.3130 C   0  0  0  0  0  0  0  0  0  0  0  0
   45.1290   39.7500   31.8770 P   0  0  0  0  0  0  0  0  0  0  0  0
   39.9110   36.8890   35.8790 C   0  0  0  0  0  0  0  0  0  0  0  0
   44.1790   39.3580   34.5400 C   0  0  0  0  0  0  0  0  0  0  0  0
   41.5600   39.1540   34.8890 C   0  0  0  0  0  0  0  0  0  0  0  0
   40.3080   40.0510   35.1520 C   0  0  0  0  0  0  0  0  0  0  0  0
  2 13  1  0
  4 10  1  0
  5 10  1  0
  6 11  2  0
  7 11  1  0
  9 12  1  0
 10  3  1  0
 11  8  1  0
 11  2  1  0
 12  5  2  3
 13  1  1  0
 14  1  1  0
 14 15  1  0
 14  9  1  0
M  END
$$$$

     RDKit          3D

 21 20  0  0  0  0  0  0  0  0999 V2000
   42.6580   38.8520   31.8390 C   0  0  0  0  0  0  0  0  0  0  0  0
   44.1340   42.1030   33.9270 C   0  0  0  0  0  0  0  0  0  0  0  0
   37.3480   33.7980   34.0240 N   0  0  0  0  0  0  0  0  0  0  0  0
   37.9980   34.6140   34.5760 C   0  0  0  0  0  0  0  0  0  0  0  0
   35.6040   32.3460   34.7220 C   0  0  0  0  0  0  0  0  0  0  0  0
   35.0880   33.0380   32.4010 C   0  0  0  0  0  0  0  0  0  0  0  0
   41.7650   37.8460   31.1520 C   0  0  0  0  0  0  0  0  0  0  0  0
   44.5270   41.6920   35.2680 O   0  0  0  0  0  0  0  0  0  0  0  0
   35.5880   32.7950   35.9350 O   0  0  0  0  0  0  0  0  0  0  0  0
   41.9640   39.3580   33.0750 C   0  0  0  0  0  0  0  0  0  0  0  0
   34.5590   31.4510   34.2120 N   0  0  0  0  0  0  0  0  0  0  0  0
   43.1700   43.3070   34.0360 C   0  0  0  0  0  0  0  0  0  0  0  0
   39.7790   36.2180   33.7470 C   0  0  0  0  0  0  0  0  0  0  0  0
   43.9850   40.7430   33.2070 C   0  0  0  0  0  0  0  0  0  0  0  0
   41.7290   37.7500   29.9470 O   0  0  0  0  0  0  0  0  0  0  0  0
   45.0780   42.0970   36.2360 C   0  0  0  0  0  0  0  0  0  0  0  0
   42.8300   40.1160   33.9560 C   0  0  0  0  0  0  0  0  0  0  0  0
   35.9350   33.4440   33.6440 C   0  0  0  0  0  0  0  0  0  0  0  0
   38.3020   36.0640   34.1610 C   0  0  0  0  0  0  0  0  0  0  0  0
   40.4230   37.3250   32.9350 C   0  0  0  0  0  0  0  0  0  0  0  0
   41.0960   36.8160   31.8110 O   0  0  0  0  0  0  0  0  0  0  0  0
  1 10  1  0
  2 12  1  0
  2  8  1  0
  3  4  1  0
  5  9  2  0
  7 21  1  0
  7  1  1  0
  8 16  1  0
 10 17  1  0
 11  5  1  0
 13 19  1  0
 14  2  1  0
 14 17  1  0
 15  7  2  0
 18  6  1  0
 18  3  1  0
 18  5  1  0
 19  4  1  0
 20 13  1  0
 21 20  1  0
M  END
$$$$

     RDKit          3D

 11 11  0  0  0  0  0  0  0  0999 V2000
   36.7840   36.7450   32.1920 C   0  0  0  0  0  0  0  0  0  0  0  0
   41.3830   37.4080   30.2660 N   0  0  0  0  0  0  0  0  0  0  0  0
   35.8830   37.1150   31.1010 O   0  0  0  0  0  0  0  0  0  0  0  0
   39.9460   37.5370   30.4960 C   0  0  0  0  0  0  0  0  0  0  0  0
   39.9230   38.0850   31.8470 N   0  0  0  0  0  0  0  0  0  0  0  0
   38.3210   38.6710   33.5340 O   0  0  0  0  0  0  0  0  0  0  0  0
   38.7340   38.2640   32.4440 C   0  0  0  0  0  0  0  0  0  0  0  0
   42.1900   38.0780   31.5020 C   0  0  0  0  0  0  0  0  0  0  0  0
   41.1210   38.3740   32.3530 C   0  0  0  0  0  0  0  0  0  0  0  0
   36.3930   36.4570   33.2430 O   0  0  0  0  0  0  0  0  0  0  0  0
   37.9290   37.2560   31.7670 N   0  0  0  0  0  0  0  0  0  0  0  0
  1 10  1  0
  2  4  2  0
  2  8  1  0
  3  1  2  0
  4  5  1  0
  5  9  1  0
  5  7  1  0
  7  6  2  0
  8  9  2  0
 11  1  1  0
 11  7  1  0
M  END
$$$$

     RDKit          3D

 28 28  0  0  0  0  0  0  0  0999 V2000
   44.4920   41.3760   35.2690 C   0  0  0  0  0  0  0  0  0  0  0  0
   39.5680   36.3570   31.8170 C   0  0  0  0  0  0  0  0  0  0  0  0
   32.3140   31.5730   31.4570 O   0  0  0  0  0  0  0  0  0  0  0  0
   42.7310   40.2600   33.7780 S   0  0  0  0  0  0  0  0  0  0  0  0
   39.0680   38.7450   32.6660 C   0  0  0  0  0  0  0  0  0  0  0  0
   43.9710   41.4490   33.8450 C   0  0  0  0  0  0  0  0  0  0  0  0
   30.3160   32.5310   34.0820 C   0  0  0  0  0  0  0  0  0  0  0  0
   36.8810   34.0840   32.7530 C   0  0  0  0  0  0  0  0  0  0  0  0
   41.9700   38.0180   32.3780 N   0  0  0  0  0  0  0  0  0  0  0  0
   41.1520   37.9960   31.8550 C   0  0  0  0  0  0  0  0  0  0  0  0
   45.6680   37.6640   31.3800 C   0  0  0  0  0  0  0  0  0  0  0  0
   35.4690   33.6030   34.1540 O   0  0  0  0  0  0  0  0  0  0  0  0
   34.3180   34.0820   32.1920 N   0  0  0  0  0  0  0  0  0  0  0  0
   39.6830   37.7400   31.7090 C   0  0  0  0  0  0  0  0  0  0  0  0
   45.2950   41.0580   32.7870 C   0  0  0  0  0  0  0  0  0  0  0  0
   31.4090   32.1980   33.3540 C   0  0  0  0  0  0  0  0  0  0  0  0
   43.1190   41.8090   35.9730 C   0  0  0  0  0  0  0  0  0  0  0  0
   37.5700   32.8550   32.2570 C   0  0  0  0  0  0  0  0  0  0  0  0
   42.8930   38.8730   32.8070 C   0  0  0  0  0  0  0  0  0  0  0  0
   44.3610   37.4660   31.7340 O   0  0  0  0  0  0  0  0  0  0  0  0
   33.1980   33.4180   32.4970 C   0  0  0  0  0  0  0  0  0  0  0  0
   37.3660   35.4000   32.7840 C   0  0  0  0  0  0  0  0  0  0  0  0
   44.3830   38.5740   32.5880 C   0  0  0  0  0  0  0  0  0  0  0  0
   35.3710   33.9770   32.9500 C   0  0  0  0  0  0  0  0  0  0  0  0
   32.6280   34.2660   33.6930 N   0  0  0  0  0  0  0  0  0  0  0  0
   45.3570   39.7430   32.4830 C   0  0  0  0  0  0  0  0  0  0  0  0
   32.3090   32.4390   32.2710 C   0  0  0  0  0  0  0  0  0  0  0  0
   38.6920   35.5640   32.3470 N   0  0  0  0  0  0  0  0  0  0  0  0
  1 17  1  0
  2 28  1  0
  3 27  2  0
  4  6  1  0
  6  1  1  0
  8 22  2  3
  8 24  1  0
 10  9  1  0
 11 20  1  0
 13 21  1  0
 13 24  1  0
 14  2  1  0
 14 10  1  0
 14  5  1  0
 15  6  1  0
 16  7  2  0
 18  8  1  0
 19  9  1  0
 19  4  1  0
 21 25  2  0
 23 20  1  0
 23 19  1  0
 24 12  2  0
 26 23  1  0
 26 15  1  0
 27 21  1  0
 27 16  1  0
 28 22  1  0
M  END
$$$$
