
     RDKit          3D

 10 10  0  0  0  0  0  0  0  0999 V2000
   39.8060   43.5360   29.2940 O   0  0  0  0  0  0  0  0  0  0  0  0
   39.5920   42.3090   28.9140 C   0  0  0  0  0  0  0  0  0  0  0  0
   40.3230   38.4940   28.6410 O   0  0  0  0  0  0  0  0  0  0  0  0
   40.2620   41.1680   29.6850 C   0  0  0  0  0  0  0  0  0  0  0  0
   39.4180   38.9950   28.9390 C   0  0  0  0  0  0  0  0  0  0  0  0
   39.0630   40.2280   29.7660 C   0  0  0  0  0  0  0  0  0  0  0  0
   38.7010   38.0230   29.2950 O   0  0  0  0  0  0  0  0  0  0  0  0
   38.1080   42.2260   29.1770 C   0  0  0  0  0  0  0  0  0  0  0  0
   37.9230   40.7810   28.8830 C   0  0  0  0  0  0  0  0  0  0  0  0
   38.2240   40.5900   27.5090 O   0  0  0  0  0  0  0  0  0  0  0  0
  2  8  1  0
  2  1  1  0
  2  4  1  0
  3  5  2  0
  4  6  1  0
  5  7  1  0
  6  5  1  0
  9 10  1  0
  9  8  1  0
  9  6  1  0
M  END
$$$$

     RDKit          3D

 16 17  0  0  0  0  0  0  0  0999 V2000
   38.9300   38.1380   31.2870 C   0  0  0  0  0  0  0  0  0  0  0  0
   37.8520   35.0200   32.7490 S   0  0  0  0  0  0  0  0  0  0  0  0
   37.4490   36.6240   32.2400 C   0  0  0  0  0  0  0  0  0  0  0  0
   39.4750   37.3960   33.5650 O   0  0  0  0  0  0  0  0  0  0  0  0
   35.3480   35.0690   33.0210 C   0  0  0  0  0  0  0  0  0  0  0  0
   42.0060   38.6490   30.3870 C   0  0  0  0  0  0  0  0  0  0  0  0
   39.9400   39.1530   31.3860 O   0  0  0  0  0  0  0  0  0  0  0  0
   35.1810   34.0310   34.0030 C   0  0  0  0  0  0  0  0  0  0  0  0
   38.5580   37.4630   32.5900 C   0  0  0  0  0  0  0  0  0  0  0  0
   40.0740   38.9950   28.9160 C   0  0  0  0  0  0  0  0  0  0  0  0
   37.5810   36.4640   30.7480 C   0  0  0  0  0  0  0  0  0  0  0  0
   34.1700   35.8860   33.6580 N   0  0  0  0  0  0  0  0  0  0  0  0
   38.9600   36.8610   30.5880 O   0  0  0  0  0  0  0  0  0  0  0  0
   41.0120   40.8320   30.1680 C   0  0  0  0  0  0  0  0  0  0  0  0
   36.6040   35.8370   33.2440 C   0  0  0  0  0  0  0  0  0  0  0  0
   40.7260   39.3810   30.2070 N   0  0  0  0  0  0  0  0  0  0  0  0
  1  7  1  0
  1  9  1  0
  2 15  1  0
  3 11  1  0
  3  9  1  0
  3  2  1  0
  3 15  1  0
  5 12  1  0
  5  8  1  0
  9  4  1  0
 10 16  1  0
 13 11  1  0
 13  1  1  0
 14 16  1  0
 15  5  1  0
 16  6  1  0
 16  7  1  0
M  END
$$$$

     RDKit          3D

 12 11  0  0  0  0  0  0  0  0999 V2000
   40.2160   39.3030   29.1210 C   0  0  0  0  0  0  0  0  0  0  0  0
   38.7450   36.1220   30.4680 N   0  0  0  0  0  0  0  0  0  0  0  0
   38.7670   36.4440   31.8560 C   0  0  0  0  0  0  0  0  0  0  0  0
   38.4950   34.1140   32.5640 N   0  0  0  0  0  0  0  0  0  0  0  0
   36.7130   35.8440   33.7010 S   0  0  0  0  0  0  0  0  0  0  0  0
   39.9510   38.9120   30.4700 C   0  0  0  0  0  0  0  0  0  0  0  0
   40.3770   42.3730   29.3820 O   0  0  0  0  0  0  0  0  0  0  0  0
   38.2730   37.8560   32.0630 C   0  0  0  0  0  0  0  0  0  0  0  0
   38.4840   38.6760   30.8030 C   0  0  0  0  0  0  0  0  0  0  0  0
   38.0610   35.3550   32.6670 C   0  0  0  0  0  0  0  0  0  0  0  0
   41.5590   41.4560   29.3270 C   0  0  0  0  0  0  0  0  0  0  0  0
   41.2070   40.2250   28.4440 C   0  0  0  0  0  0  0  0  0  0  0  0
  1  6  1  0
  3  2  1  0
  3  8  1  0
  3 10  1  0
  4 10  1  0
  6  9  1  0
  9  8  1  0
 10  5  2  0
 11  7  1  0
 12  1  1  0
 12 11  1  0
M  END
$$$$

     RDKit          3D

 12 13  0  0  0  0  0  0  0  0999 V2000
   38.3720   40.2970   30.9680 C   0  0  0  0  0  0  0  0  0  0  0  0
   40.3370   42.5590   30.4720 O   0  0  0  0  0  0  0  0  0  0  0  0
   38.3750   38.8980   31.6420 C   0  0  0  0  0  0  0  0  0  0  0  0
   38.9470   38.9770   32.9390 N   0  0  0  0  0  0  0  0  0  0  0  0
   38.3560   40.4410   28.3930 C   0  0  0  0  0  0  0  0  0  0  0  0
   40.5050   42.2580   28.2950 O   0  0  0  0  0  0  0  0  0  0  0  0
   40.1100   41.8840   29.4370 C   0  0  0  0  0  0  0  0  0  0  0  0
   40.6200   38.8710   28.3290 O   0  0  0  0  0  0  0  0  0  0  0  0
   38.5390   38.1170   29.3980 O   0  0  0  0  0  0  0  0  0  0  0  0
   39.2280   40.5600   29.6410 C   0  0  0  0  0  0  0  0  0  0  0  0
   39.2900   39.2540   28.6590 S   0  0  0  0  0  0  0  0  0  0  0  0
   39.2050   37.9680   30.7270 C   0  0  0  0  0  0  0  0  0  0  0  0
  1  3  1  0
  3  4  1  0
  5 11  1  0
  5 10  1  0
  6  7  2  0
  7  2  1  0
  9 12  1  0
 10  7  1  0
 10  1  1  0
 11  8  1  0
 11  9  1  0
 11 10  1  0
 12  3  1  0
M  END
$$$$

     RDKit          3D

  7  6  0  0  0  0  0  0  0  0999 V2000
   39.1460   40.3960   30.1340 N   0  0  0  0  0  0  0  0  0  0  0  0
   42.8100   39.0890   28.9990 O   0  0  0  0  0  0  0  0  0  0  0  0
   39.7790   40.2330   28.8910 C   0  0  0  0  0  0  0  0  0  0  0  0
   42.4620   39.8700   30.1900 C   0  0  0  0  0  0  0  0  0  0  0  0
   41.0950   41.7870   27.4860 C   0  0  0  0  0  0  0  0  0  0  0  0
   41.9720   41.2700   29.7220 C   0  0  0  0  0  0  0  0  0  0  0  0
   40.8480   41.0840   28.7910 C   0  0  0  0  0  0  0  0  0  0  0  0
  2  4  1  0
  3  1  1  0
  6  4  1  0
  7  5  1  0
  7  3  1  0
  7  6  1  0
M  END
$$$$

     RDKit          3D

 24 23  0  0  0  0  0  0  0  0999 V2000
   42.3130   38.4490   29.9370 C   0  0  0  0  0  0  0  0  0  0  0  0
   38.6330   37.8980   29.7810 C   0  0  0  0  0  0  0  0  0  0  0  0
   35.6540   35.2190   35.4320 C   0  0  0  0  0  0  0  0  0  0  0  0
   40.5090   37.1110   31.2160 C   0  0  0  0  0  0  0  0  0  0  0  0
   37.1160   38.0270   29.6660 C   0  0  0  0  0  0  0  0  0  0  0  0
   36.1960   37.6880   30.7780 C   0  0  0  0  0  0  0  0  0  0  0  0
   41.1710   41.6990   32.9250 O   0  0  0  0  0  0  0  0  0  0  0  0
   41.3930   39.1050   32.1220 C   0  0  0  0  0  0  0  0  0  0  0  0
   32.9710   32.2000   34.4110 O   0  0  0  0  0  0  0  0  0  0  0  0
   42.5320   41.9460   32.4140 C   0  0  0  0  0  0  0  0  0  0  0  0
   38.1890   36.9840   32.1860 C   0  0  0  0  0  0  0  0  0  0  0  0
   35.2100   36.5390   32.5910 C   0  0  0  0  0  0  0  0  0  0  0  0
   42.7590   39.5370   32.5250 N   0  0  0  0  0  0  0  0  0  0  0  0
   34.5790   33.1290   34.7610 C   0  0  0  0  0  0  0  0  0  0  0  0
   43.2890   40.7620   31.9190 C   0  0  0  0  0  0  0  0  0  0  0  0
   36.6330   36.7760   32.1710 C   0  0  0  0  0  0  0  0  0  0  0  0
   34.9450   34.3850   34.3830 C   0  0  0  0  0  0  0  0  0  0  0  0
   35.5960   36.7870   33.4970 C   0  0  0  0  0  0  0  0  0  0  0  0
   36.3430   36.3460   34.6810 C   0  0  0  0  0  0  0  0  0  0  0  0
   41.2790   38.3130   30.9150 N   0  0  0  0  0  0  0  0  0  0  0  0
   42.8950   43.0730   32.8670 O   0  0  0  0  0  0  0  0  0  0  0  0
   35.4260   34.1660   32.9490 C   0  0  0  0  0  0  0  0  0  0  0  0
   34.2680   32.0330   34.2810 N   0  0  0  0  0  0  0  0  0  0  0  0
   39.0810   37.2720   30.9840 C   0  0  0  0  0  0  0  0  0  0  0  0
  1 20  1  0
  5  2  1  0
  5  6  1  0
  8 13  1  0
 10 21  2  0
 10  7  1  0
 12 18  1  0
 15 10  1  0
 15 13  1  0
 16 11  1  0
 16 12  1  0
 17 22  1  0
 17 14  1  0
 17  3  1  0
 18 19  1  0
 19  3  1  0
 20  4  1  0
 20  8  1  0
 23  9  1  0
 23 14  1  0
 24  2  1  0
 24  4  1  0
 24 11  1  0
M  END
$$$$

     RDKit          3D

 12 11  0  0  0  0  0  0  0  0999 V2000
   41.1650   41.9060   23.9800 C   0  0  0  0  0  0  0  0  0  0  0  0
   41.4100   40.4230   27.0670 C   0  0  0  0  0  0  0  0  0  0  0  0
   38.8240   39.7580   29.4510 C   0  0  0  0  0  0  0  0  0  0  0  0
   38.6440   41.1670   29.6540 C   0  0  0  0  0  0  0  0  0  0  0  0
   42.0700   41.9900   25.2360 C   0  0  0  0  0  0  0  0  0  0  0  0
   38.1760   38.7270   30.4240 C   0  0  0  0  0  0  0  0  0  0  0  0
   42.0260   40.7400   26.1580 C   0  0  0  0  0  0  0  0  0  0  0  0
   36.8120   38.0870   30.7880 C   0  0  0  0  0  0  0  0  0  0  0  0
   39.5280   39.1910   28.2400 C   0  0  0  0  0  0  0  0  0  0  0  0
   34.5640   36.8970   31.0880 O   0  0  0  0  0  0  0  0  0  0  0  0
   35.5560   37.2990   31.3520 C   0  0  0  0  0  0  0  0  0  0  0  0
   41.0230   39.4200   28.1190 C   0  0  0  0  0  0  0  0  0  0  0  0
  1  5  1  0
  2 12  1  0
  3  4  1  0
  3  6  1  0
  5  7  1  0
  6  8  2  0
  7  2  2  3
  8 11  2  0
  9  3  1  0
 10 11  1  0
 12  9  1  0
M  END
$$$$

     RDKit          3D

 26 26  0  0  0  0  0  0  0  0999 V2000
   40.1160   38.0430   36.6020 C   0  0  0  0  0  0  0  0  0  0  0  0
   34.4830   33.5130   30.4330 C   0  0  0  0  0  0  0  0  0  0  0  0
   40.3700   38.1430   30.0760 N   0  0  0  0  0  0  0  0  0  0  0  0
   32.7720   33.6430   32.2350 N   0  0  0  0  0  0  0  0  0  0  0  0
   31.8250   31.4410   31.9020 C   0  0  0  0  0  0  0  0  0  0  0  0
   39.0340   37.6860   35.6610 O   0  0  0  0  0  0  0  0  0  0  0  0
   30.8960   30.6540   32.7500 C   0  0  0  0  0  0  0  0  0  0  0  0
   38.7070   38.0510   32.4040 C   0  0  0  0  0  0  0  0  0  0  0  0
   38.2600   38.0240   30.9140 C   0  0  0  0  0  0  0  0  0  0  0  0
   38.5740   41.3060   29.2050 C   0  0  0  0  0  0  0  0  0  0  0  0
   38.8090   36.5760   34.8890 C   0  0  0  0  0  0  0  0  0  0  0  0
   38.7390   35.4890   35.2200 O   0  0  0  0  0  0  0  0  0  0  0  0
   36.3060   36.5930   31.2380 C   0  0  0  0  0  0  0  0  0  0  0  0
   38.8330   41.0520   27.9840 F   0  0  0  0  0  0  0  0  0  0  0  0
   34.3120   35.4700   31.4700 C   0  0  0  0  0  0  0  0  0  0  0  0
   39.1320   40.2890   30.0810 C   0  0  0  0  0  0  0  0  0  0  0  0
   36.2120   36.5940   32.6300 C   0  0  0  0  0  0  0  0  0  0  0  0
   32.6140   32.1530   31.4950 C   0  0  0  0  0  0  0  0  0  0  0  0
   38.9580   38.2530   28.6420 O   0  0  0  0  0  0  0  0  0  0  0  0
   33.5700   34.2070   31.1290 C   0  0  0  0  0  0  0  0  0  0  0  0
   37.3380   36.2000   33.3450 C   0  0  0  0  0  0  0  0  0  0  0  0
   39.0790   38.7810   29.9600 C   0  0  0  0  0  0  0  0  0  0  0  0
   33.3850   36.4280   31.9990 O   0  0  0  0  0  0  0  0  0  0  0  0
   37.6570   36.7080   30.4530 C   0  0  0  0  0  0  0  0  0  0  0  0
   35.3330   36.0760   30.5930 N   0  0  0  0  0  0  0  0  0  0  0  0
   38.3700   36.9820   33.4660 C   0  0  0  0  0  0  0  0  0  0  0  0
  5  7  1  0
  6  1  1  0
  8 26  1  0
  9 22  1  0
  9  8  1  0
 10 16  1  0
 11 12  2  0
 11  6  1  0
 13 25  1  0
 13 17  1  0
 14 10  1  0
 15 23  2  0
 17 21  1  0
 18  5  1  0
 18  4  1  0
 20  2  1  0
 20 15  1  0
 20  4  1  0
 21 26  1  0
 22 19  1  0
 22  3  1  0
 22 16  1  0
 24  9  1  0
 24 13  1  0
 25 15  1  0
 26 11  1  0
M  END
$$$$

     RDKit          3D

  8  8  0  0  0  0  0  0  0  0999 V2000
   36.9830   41.2660   26.0300 O   0  0  0  0  0  0  0  0  0  0  0  0
   39.1420   40.5340   24.2450 O   0  0  0  0  0  0  0  0  0  0  0  0
   39.9990   39.4760   26.1590 C   0  0  0  0  0  0  0  0  0  0  0  0
   38.0320   40.7620   26.3580 C   0  0  0  0  0  0  0  0  0  0  0  0
   38.6390   40.6830   27.7480 C   0  0  0  0  0  0  0  0  0  0  0  0
   39.0880   40.4920   25.4590 C   0  0  0  0  0  0  0  0  0  0  0  0
   39.5880   39.4280   27.5610 C   0  0  0  0  0  0  0  0  0  0  0  0
   37.3380   40.8430   28.9470 S   0  0  0  0  0  0  0  0  0  0  0  0
  1  4  2  0
  2  6  2  0
  3  7  1  0
  4  5  1  0
  5  8  1  0
  6  3  1  0
  6  4  1  0
  7  5  1  0
M  END
$$$$

     RDKit          3D

 16 15  0  0  0  0  0  0  0  0999 V2000
   38.1360   39.1020   32.6380 N   0  0  0  0  0  0  0  0  0  0  0  0
   37.7540   37.8620   30.2120 C   0  0  0  0  0  0  0  0  0  0  0  0
   34.7890   34.8650   32.0530 C   0  0  0  0  0  0  0  0  0  0  0  0
   38.9620   39.8590   26.1570 C   0  0  0  0  0  0  0  0  0  0  0  0
   33.5420   34.6710   31.1930 C   0  0  0  0  0  0  0  0  0  0  0  0
   38.3760   41.0400   31.4860 O   0  0  0  0  0  0  0  0  0  0  0  0
   39.9430   38.8880   26.8160 C   0  0  0  0  0  0  0  0  0  0  0  0
   36.3900   36.7880   31.9600 C   0  0  0  0  0  0  0  0  0  0  0  0
   38.5660   39.0480   30.3130 N   0  0  0  0  0  0  0  0  0  0  0  0
   33.3650   35.6780   30.0570 C   0  0  0  0  0  0  0  0  0  0  0  0
   36.4400   37.9340   30.9450 C   0  0  0  0  0  0  0  0  0  0  0  0
   38.3120   39.7720   31.4720 C   0  0  0  0  0  0  0  0  0  0  0  0
   34.9840   36.3450   32.3140 C   0  0  0  0  0  0  0  0  0  0  0  0
   40.5610   40.4560   28.3830 C   0  0  0  0  0  0  0  0  0  0  0  0
   39.7830   39.3680   28.1990 C   0  0  0  0  0  0  0  0  0  0  0  0
   38.6270   39.1770   28.8480 C   0  0  0  0  0  0  0  0  0  0  0  0
  2  9  1  0
  2 11  1  0
  3 13  1  0
  4  7  1  0
  5  3  1  0
  7 15  1  0
  8 13  1  0
  9 12  1  0
 10  5  1  0
 11  8  1  0
 12  6  2  0
 12  1  1  0
 15 14  2  0
 15 16  1  0
 16  9  1  0
M  END
$$$$

     RDKit          3D

  5  5  0  0  0  0  0  0  0  0999 V2000
   38.1420   39.3810   26.7200 O   0  0  0  0  0  0  0  0  0  0  0  0
   40.1990   38.5640   27.5360 O   0  0  0  0  0  0  0  0  0  0  0  0
   38.7790   40.6070   26.5750 N   0  0  0  0  0  0  0  0  0  0  0  0
   38.7540   39.9790   28.9590 N   0  0  0  0  0  0  0  0  0  0  0  0
   39.0380   39.3790   27.6620 S   0  0  0  0  0  0  0  0  0  0  0  0
  1  5  1  0
  3  1  1  0
  3  5  1  0
  5  2  1  0
  5  4  1  0
M  END
$$$$

     RDKit          3D

 14 14  0  0  0  0  0  0  0  0999 V2000
   41.0930   40.3240   31.9880 C   0  0  0  0  0  0  0  0  0  0  0  0
   38.3950   36.3770   36.1720 C   0  0  0  0  0  0  0  0  0  0  0  0
   38.8710   39.2210   33.6840 C   0  0  0  0  0  0  0  0  0  0  0  0
   37.8360   37.6510   35.5770 C   0  0  0  0  0  0  0  0  0  0  0  0
   41.9980   41.3250   30.0150 O   0  0  0  0  0  0  0  0  0  0  0  0
   38.7180   37.8990   34.3580 C   0  0  0  0  0  0  0  0  0  0  0  0
   39.0730   38.8390   32.2440 C   0  0  0  0  0  0  0  0  0  0  0  0
   37.9710   35.2730   35.2060 C   0  0  0  0  0  0  0  0  0  0  0  0
   43.1260   39.6130   31.0610 N   0  0  0  0  0  0  0  0  0  0  0  0
   37.8530   35.6280   33.7660 C   0  0  0  0  0  0  0  0  0  0  0  0
   38.8100   36.7670   33.3740 C   0  0  0  0  0  0  0  0  0  0  0  0
   40.5030   38.9360   31.8270 C   0  0  0  0  0  0  0  0  0  0  0  0
   42.0230   40.4060   30.8260 C   0  0  0  0  0  0  0  0  0  0  0  0
   39.9090   40.0200   34.2990 N   0  0  0  0  0  0  0  0  0  0  0  0
  3 14  1  0
  3  6  1  0
  4  2  1  0
  5 13  2  0
  6  4  1  0
  7  3  1  0
  8  2  1  0
 10  8  1  0
 11 10  1  0
 11  6  1  0
 12  1  1  0
 12  7  1  0
 13  9  1  0
 13  1  1  0
M  END
$$$$

     RDKit          3D

 19 19  0  0  0  0  0  0  0  0999 V2000
   41.1560   39.5710   31.0800 C   0  0  0  0  0  0  0  0  0  0  0  0
   37.5320   36.6550   33.1410 C   0  0  0  0  0  0  0  0  0  0  0  0
   37.2010   36.1160   34.1500 N   0  0  0  0  0  0  0  0  0  0  0  0
   37.5100   40.1680   28.1100 O   0  0  0  0  0  0  0  0  0  0  0  0
   40.9690   38.6030   34.6690 C   0  0  0  0  0  0  0  0  0  0  0  0
   40.0910   37.6050   36.5970 O   0  0  0  0  0  0  0  0  0  0  0  0
   38.1780   37.8430   32.4420 C   0  0  0  0  0  0  0  0  0  0  0  0
   38.6870   38.1440   34.9470 O   0  0  0  0  0  0  0  0  0  0  0  0
   36.6990   41.2590   27.6360 C   0  0  0  0  0  0  0  0  0  0  0  0
   38.6860   40.7950   28.6360 C   0  0  0  0  0  0  0  0  0  0  0  0
   40.9760   38.4410   33.2160 C   0  0  0  0  0  0  0  0  0  0  0  0
   41.3770   40.7590   30.1530 C   0  0  0  0  0  0  0  0  0  0  0  0
   39.9120   37.7300   35.1940 C   0  0  0  0  0  0  0  0  0  0  0  0
   39.5060   38.6600   32.7350 C   0  0  0  0  0  0  0  0  0  0  0  0
   38.6960   39.6660   30.7650 C   0  0  0  0  0  0  0  0  0  0  0  0
   39.7710   39.5620   31.6190 N   0  0  0  0  0  0  0  0  0  0  0  0
   41.2100   40.4150   28.6600 C   0  0  0  0  0  0  0  0  0  0  0  0
   39.8440   39.8950   28.2170 C   0  0  0  0  0  0  0  0  0  0  0  0
   38.5290   40.9700   30.1360 C   0  0  0  0  0  0  0  0  0  0  0  0
  1 16  1  0
  2  3  2  0
  5 13  1  0
  7  2  1  0
  8 13  1  0
  9  4  1  0
 10  4  1  0
 10 19  1  0
 11  5  1  0
 12  1  1  0
 13  6  1  0
 14  7  1  0
 14 11  1  0
 15 16  1  0
 16 14  1  0
 17 12  1  0
 18 10  1  0
 18 17  1  0
 19 15  1  0
M  END
$$$$

     RDKit          3D

 29 33  0  0  0  0  0  0  0  0999 V2000
   38.5920   37.3330   35.3710 N   0  0  0  0  0  0  0  0  0  0  0  0
   39.2730   41.4050   34.0730 C   0  0  0  0  0  0  0  0  0  0  0  0
   34.7740   32.3900   29.6880 C   0  0  0  0  0  0  0  0  0  0  0  0
   36.7450   34.0070   29.6680 C   0  0  0  0  0  0  0  0  0  0  0  0
   33.0890   33.4990   32.3120 O   0  0  0  0  0  0  0  0  0  0  0  0
   38.5680   37.4110   33.0790 C   0  0  0  0  0  0  0  0  0  0  0  0
   36.9190   34.0110   32.1450 C   0  0  0  0  0  0  0  0  0  0  0  0
   39.4670   40.4390   30.3110 O   0  0  0  0  0  0  0  0  0  0  0  0
   39.1390   39.8060   29.1850 C   0  0  0  0  0  0  0  0  0  0  0  0
   39.3690   39.5860   32.5870 C   0  0  0  0  0  0  0  0  0  0  0  0
   39.5100   40.5430   28.0250 O   0  0  0  0  0  0  0  0  0  0  0  0
   41.6570   41.1660   27.1610 C   0  0  0  0  0  0  0  0  0  0  0  0
   39.7020   40.8170   32.8510 O   0  0  0  0  0  0  0  0  0  0  0  0
   40.5220   41.6020   28.0090 C   0  0  0  0  0  0  0  0  0  0  0  0
   38.5650   37.1920   31.6810 C   0  0  0  0  0  0  0  0  0  0  0  0
   38.3360   36.6200   34.2050 N   0  0  0  0  0  0  0  0  0  0  0  0
   39.0050   38.6270   33.5530 C   0  0  0  0  0  0  0  0  0  0  0  0
   39.0540   38.6500   35.0150 C   0  0  0  0  0  0  0  0  0  0  0  0
   39.3960   39.3800   31.2660 N   0  0  0  0  0  0  0  0  0  0  0  0
   38.8960   38.1810   30.7760 C   0  0  0  0  0  0  0  0  0  0  0  0
   36.2220   32.6290   29.0710 C   0  0  0  0  0  0  0  0  0  0  0  0
   38.1040   35.8360   31.0890 C   0  0  0  0  0  0  0  0  0  0  0  0
   33.9080   34.0790   31.3480 C   0  0  0  0  0  0  0  0  0  0  0  0
   38.8610   38.4860   29.4210 N   0  0  0  0  0  0  0  0  0  0  0  0
   34.9960   33.0490   31.1110 C   0  0  0  0  0  0  0  0  0  0  0  0
   37.3040   35.2670   32.2190 C   0  0  0  0  0  0  0  0  0  0  0  0
   38.1750   34.7640   29.9350 C   0  0  0  0  0  0  0  0  0  0  0  0
   36.2950   33.6940   30.9990 N   0  0  0  0  0  0  0  0  0  0  0  0
   34.2090   35.4750   31.4270 O   0  0  0  0  0  0  0  0  0  0  0  0
  3 25  1  0
  4 21  1  0
  4 27  1  0
  4 28  1  0
  6 17  1  0
  6 16  2  0
  7 26  1  0
  8 19  1  0
  9 24  2  0
  9  8  1  0
 10 13  1  0
 10 17  2  0
 11  9  1  0
 12 14  1  0
 13  2  1  0
 14 11  1  0
 15  6  1  0
 16  1  1  0
 17 18  1  0
 18  1  2  0
 19 10  1  0
 20 19  1  0
 20 15  2  0
 21  3  1  0
 22 15  1  0
 22 26  2  0
 23 29  2  0
 23  5  1  0
 24 20  1  0
 25 23  1  0
 27 22  1  0
 28 25  1  0
 28  7  1  0
M  END
$$$$

     RDKit          3D

  1  0  0  0  0  0  0  0  0  0999 V2000
   -5.7690   -5.2030   43.4250 O   0  0  0  0  0  0  0  0  0  0  0  0
M  END
$$$$

     RDKit          3D

 21 21  0  0  0  0  0  0  0  0999 V2000
   39.1120   38.8820   29.5260 C   0  0  0  0  0  0  0  0  0  0  0  0
   37.0290   32.8690   34.4400 N   0  0  0  0  0  0  0  0  0  0  0  0
   39.2960   37.7590   29.0040 N   0  0  0  0  0  0  0  0  0  0  0  0
   37.6030   35.0640   33.9500 C   0  0  0  0  0  0  0  0  0  0  0  0
   34.9250   33.8970   33.9910 C   0  0  0  0  0  0  0  0  0  0  0  0
   38.5180   38.3310   31.8040 C   0  0  0  0  0  0  0  0  0  0  0  0
   38.7840   37.7280   30.3870 C   0  0  0  0  0  0  0  0  0  0  0  0
   39.2360   32.6620   35.4890 C   0  0  0  0  0  0  0  0  0  0  0  0
   36.4840   34.0930   33.8480 C   0  0  0  0  0  0  0  0  0  0  0  0
   38.5940   36.2280   30.6630 C   0  0  0  0  0  0  0  0  0  0  0  0
   38.7820   31.5320   33.3460 C   0  0  0  0  0  0  0  0  0  0  0  0
   38.2940   32.5570   34.3370 C   0  0  0  0  0  0  0  0  0  0  0  0
   33.1320   35.2740   35.2320 C   0  0  0  0  0  0  0  0  0  0  0  0
   33.6620   34.5830   31.8340 C   0  0  0  0  0  0  0  0  0  0  0  0
   37.7200   35.8310   31.6290 C   0  0  0  0  0  0  0  0  0  0  0  0
   34.6260   34.9860   35.0360 C   0  0  0  0  0  0  0  0  0  0  0  0
   39.1710   40.0560   29.5720 O   0  0  0  0  0  0  0  0  0  0  0  0
   36.3370   36.0470   31.3990 C   0  0  0  0  0  0  0  0  0  0  0  0
   33.7340   33.7170   33.0060 C   0  0  0  0  0  0  0  0  0  0  0  0
   32.3700   33.9730   35.5160 C   0  0  0  0  0  0  0  0  0  0  0  0
   38.2850   35.3900   32.7660 N   0  0  0  0  0  0  0  0  0  0  0  0
  1 17  2  0
  1  7  1  0
  3  1  1  0
  3  7  1  0
  5 19  1  0
  5 16  1  0
  7 10  1  0
  7  6  1  0
  9  4  1  0
  9  5  1  0
  9  2  1  0
 10 15  1  0
 11 12  1  0
 12  2  1  0
 12  8  1  0
 13 20  1  0
 14 19  1  0
 15 21  2  3
 16 13  1  0
 18 15  1  0
 21  4  1  0
M  END
$$$$

     RDKit          3D

  9  9  0  0  0  0  0  0  0  0999 V2000
   40.4040   40.6190   26.9860 C   0  0  0  0  0  0  0  0  0  0  0  0
   41.7250   42.1900   28.0010 C   0  0  0  0  0  0  0  0  0  0  0  0
   39.5070   39.4980   26.9490 C   0  0  0  0  0  0  0  0  0  0  0  0
   41.5310   43.0240   28.8880 O   0  0  0  0  0  0  0  0  0  0  0  0
   39.2260   38.9710   28.3090 C   0  0  0  0  0  0  0  0  0  0  0  0
   40.9680   40.9870   28.0850 C   0  0  0  0  0  0  0  0  0  0  0  0
   39.2500   40.1050   29.3420 C   0  0  0  0  0  0  0  0  0  0  0  0
   42.8880   41.9820   28.1430 O   0  0  0  0  0  0  0  0  0  0  0  0
   40.6740   40.5690   29.5080 C   0  0  0  0  0  0  0  0  0  0  0  0
  1  6  2  0
  2  6  1  0
  2  8  1  0
  2  4  1  0
  3  1  1  0
  3  5  1  0
  5  7  1  0
  6  9  1  0
  7  9  1  0
M  END
$$$$

     RDKit          3D

 13 12  0  0  0  0  0  0  0  0999 V2000
   34.3910   37.6380   30.6180 O   0  0  0  0  0  0  0  0  0  0  0  0
   41.7480   40.1620   29.4380 S   0  0  0  0  0  0  0  0  0  0  0  0
   37.4710   38.1470   30.4720 C   0  0  0  0  0  0  0  0  0  0  0  0
   41.2600   41.5980   28.4890 C   0  0  0  0  0  0  0  0  0  0  0  0
   35.2650   36.9170   29.7610 C   0  0  0  0  0  0  0  0  0  0  0  0
   39.7400   38.9650   31.2520 C   0  0  0  0  0  0  0  0  0  0  0  0
   34.8220   35.5350   29.7600 O   0  0  0  0  0  0  0  0  0  0  0  0
   43.4280   40.3620   29.7190 C   0  0  0  0  0  0  0  0  0  0  0  0
   36.6380   36.9200   30.3300 C   0  0  0  0  0  0  0  0  0  0  0  0
   38.6130   39.3450   32.1890 C   0  0  0  0  0  0  0  0  0  0  0  0
   37.2490   39.1830   31.5380 C   0  0  0  0  0  0  0  0  0  0  0  0
   41.0890   39.9510   31.3080 S   0  0  0  0  0  0  0  0  0  0  0  0
   41.2860   38.9210   28.6210 O   0  0  0  0  0  0  0  0  0  0  0  0
  2  8  1  0
  2 12  1  0
  3 11  1  0
  4  2  1  0
  5  9  1  0
  5  1  1  0
  6 12  1  0
  6 10  1  0
  7  5  1  0
  9  3  1  0
 11 10  1  0
 13  2  1  0
M  END
$$$$

     RDKit          3D

  6  5  0  0  0  0  0  0  0  0999 V2000
   39.1060   36.7990   29.3110 N   0  0  0  0  0  0  0  0  0  0  0  0
   39.1890   37.6370   28.6230 C   0  0  0  0  0  0  0  0  0  0  0  0
   39.9780   39.9360   28.3360 C   0  0  0  0  0  0  0  0  0  0  0  0
   39.5500   38.7480   27.6980 C   0  0  0  0  0  0  0  0  0  0  0  0
   40.8530   39.5000   29.5060 N   0  0  0  0  0  0  0  0  0  0  0  0
   40.2970   41.2500   27.9290 C   0  0  0  0  0  0  0  0  0  0  0  0
  2  1  3  0
  3  6  1  0
  3  5  1  0
  4  3  1  0
  4  2  1  0
M  END
$$$$

     RDKit          3D

  9  8  0  0  0  0  0  0  0  0999 V2000
   40.2900   41.5900   28.1720 O   0  0  0  0  0  0  0  0  0  0  0  0
   42.6500   41.2950   29.8800 C   0  0  0  0  0  0  0  0  0  0  0  0
   41.0440   39.2820   29.3100 O   0  0  0  0  0  0  0  0  0  0  0  0
   40.4410   42.1550   30.9080 C   0  0  0  0  0  0  0  0  0  0  0  0
   43.6210   41.4560   28.9960 C   0  0  0  0  0  0  0  0  0  0  0  0
   38.6660   39.8690   29.1870 C   0  0  0  0  0  0  0  0  0  0  0  0
   40.3280   40.4850   29.1120 S   0  0  0  0  0  0  0  0  0  0  0  0
   43.1600   41.1470   27.4210 S   0  0  0  0  0  0  0  0  0  0  0  0
   41.6650   41.4380   30.2900 C   0  0  0  0  0  0  0  0  0  0  0  0
  1  7  2  0
  2  9  1  0
  5  2  1  0
  7  6  1  0
  7  3  2  0
  7  9  1  0
  8  5  1  0
  9  4  1  0
M  END
$$$$
