
     RDKit          3D

 17 17  0  0  0  0  0  0  0  0999 V2000
   38.3370   32.4920   30.6340 C   0  0  0  0  0  0  0  0  0  0  0  0
   40.8800   39.3640   27.8120 C   0  0  0  0  0  0  0  0  0  0  0  0
   39.9260   37.4680   28.4320 N   0  0  0  0  0  0  0  0  0  0  0  0
   39.3720   35.3630   29.0560 C   0  0  0  0  0  0  0  0  0  0  0  0
   38.7510   34.4640   29.5510 N   0  0  0  0  0  0  0  0  0  0  0  0
   37.9020   31.7450   32.1480 C   0  0  0  0  0  0  0  0  0  0  0  0
   38.5990   33.8800   30.7210 C   0  0  0  0  0  0  0  0  0  0  0  0
   37.0090   32.7170   32.5690 O   0  0  0  0  0  0  0  0  0  0  0  0
   39.0570   36.7730   29.2510 C   0  0  0  0  0  0  0  0  0  0  0  0
   39.6370   38.5440   27.7270 C   0  0  0  0  0  0  0  0  0  0  0  0
   38.0380   37.1900   29.9170 O   0  0  0  0  0  0  0  0  0  0  0  0
   40.2850   38.9590   26.5190 O   0  0  0  0  0  0  0  0  0  0  0  0
   38.1380   31.1320   33.6710 O   0  0  0  0  0  0  0  0  0  0  0  0
   40.6480   40.2890   26.6350 C   0  0  0  0  0  0  0  0  0  0  0  0
   38.6540   34.6740   31.9880 C   0  0  0  0  0  0  0  0  0  0  0  0
   36.9890   30.7180   31.5290 C   0  0  0  0  0  0  0  0  0  0  0  0
   38.3630   39.2130   27.8500 N   0  0  0  0  0  0  0  0  0  0  0  0
  1  7  1  0
  1  6  1  0
  3  9  1  0
  4  9  1  0
  4  5  1  0
  5  7  1  0
  6  8  1  0
  6 13  1  0
  7 15  1  0
  9 11  2  0
 10  2  1  0
 10 17  1  0
 10  3  1  0
 12 14  1  0
 12 10  1  0
 14  2  1  0
 16  6  1  0
M  END
$$$$

     RDKit          3D

 22 23  0  0  0  0  0  0  0  0999 V2000
   38.6590   38.9660   27.7140 C   0  0  0  0  0  0  0  0  0  0  0  0
   34.8340   33.5940   32.1600 C   0  0  0  0  0  0  0  0  0  0  0  0
   39.2450   41.0090   23.8970 C   0  0  0  0  0  0  0  0  0  0  0  0
   40.8920   38.4160   27.4800 C   0  0  0  0  0  0  0  0  0  0  0  0
   37.3360   38.3180   27.9140 C   0  0  0  0  0  0  0  0  0  0  0  0
   39.0940   39.7360   24.3660 O   0  0  0  0  0  0  0  0  0  0  0  0
   39.4570   39.3250   25.4150 C   0  0  0  0  0  0  0  0  0  0  0  0
   39.0750   36.6030   27.7060 C   0  0  0  0  0  0  0  0  0  0  0  0
   35.4550   36.5150   29.2020 C   0  0  0  0  0  0  0  0  0  0  0  0
   32.9830   36.2640   29.5780 C   0  0  0  0  0  0  0  0  0  0  0  0
   39.8510   36.2740   28.9960 C   0  0  0  0  0  0  0  0  0  0  0  0
   34.4340   35.8690   29.5900 C   0  0  0  0  0  0  0  0  0  0  0  0
   40.1280   35.9060   24.7450 C   0  0  0  0  0  0  0  0  0  0  0  0
   33.5540   33.5310   32.0960 C   0  0  0  0  0  0  0  0  0  0  0  0
   39.3600   38.0190   25.7030 C   0  0  0  0  0  0  0  0  0  0  0  0
   33.3400   34.5880   31.2720 N   0  0  0  0  0  0  0  0  0  0  0  0
   39.2990   37.0660   24.7860 O   0  0  0  0  0  0  0  0  0  0  0  0
   37.6150   36.8210   27.8890 C   0  0  0  0  0  0  0  0  0  0  0  0
   34.3870   34.8990   30.5420 C   0  0  0  0  0  0  0  0  0  0  0  0
   35.3390   34.2580   30.9840 N   0  0  0  0  0  0  0  0  0  0  0  0
   36.7210   35.9240   28.6600 C   0  0  0  0  0  0  0  0  0  0  0  0
   39.5170   37.9120   27.0930 C   0  0  0  0  0  0  0  0  0  0  0  0
  1  5  1  0
  3  6  1  0
  6  7  1  0
  8 18  1  0
  8 11  1  0
  9 12  1  0
 12 10  1  0
 12 19  1  0
 13 17  1  0
 14  2  1  0
 15  7  1  0
 15 22  1  0
 16 14  1  0
 17 15  1  0
 18  5  1  0
 18 21  1  0
 19 20  1  0
 19 16  2  0
 20  2  1  0
 21  9  2  3
 22  4  1  0
 22  8  1  0
 22  1  1  0
M  END
$$$$

     RDKit          3D

 12 11  0  0  0  0  0  0  0  0999 V2000
   41.5280   38.0330   28.5500 O   0  0  0  0  0  0  0  0  0  0  0  0
   40.6310   39.2020   29.0250 S   0  0  0  0  0  0  0  0  0  0  0  0
   43.7620   36.6450   27.9440 C   0  0  0  0  0  0  0  0  0  0  0  0
   40.6930   35.8670   26.0330 C   0  0  0  0  0  0  0  0  0  0  0  0
   40.3920   39.8620   27.5460 O   0  0  0  0  0  0  0  0  0  0  0  0
   41.5720   40.0390   29.9170 O   0  0  0  0  0  0  0  0  0  0  0  0
   40.2480   37.2690   26.0330 O   0  0  0  0  0  0  0  0  0  0  0  0
   40.6410   34.3330   26.6060 C   0  0  0  0  0  0  0  0  0  0  0  0
   39.5330   38.5150   29.7870 O   0  0  0  0  0  0  0  0  0  0  0  0
   42.5400   36.7240   27.1080 N   0  0  0  0  0  0  0  0  0  0  0  0
   42.2310   35.9820   25.9400 C   0  0  0  0  0  0  0  0  0  0  0  0
   41.5010   36.7060   28.1300 C   0  0  0  0  0  0  0  0  0  0  0  0
  1  2  1  0
  2  9  1  0
  2  6  1  0
  4  7  1  0
  4  8  1  0
  5  2  1  0
 10  3  1  0
 10 12  1  0
 11  4  1  0
 11 10  1  0
 12  1  1  0
M  END
$$$$

     RDKit          3D

  3  2  0  0  0  0  0  0  0  0999 V2000
   41.2030   41.7210   26.2910 C   0  0  0  0  0  0  0  0  0  0  0  0
   41.9280   42.6160   25.8590 O   0  0  0  0  0  0  0  0  0  0  0  0
   40.5200   41.1540   26.7150 O   0  0  0  0  0  0  0  0  0  0  0  0
  1  3  2  0
  2  1  2  0
M  END
$$$$

     RDKit          3D

  9  8  0  0  0  0  0  0  0  0999 V2000
   40.9230   33.7650   28.3050 Cl  0  0  0  0  0  0  0  0  0  0  0  0
   39.8910   38.9000   28.1280 O   0  0  0  0  0  0  0  0  0  0  0  0
   39.1550   37.9070   27.8770 C   0  0  0  0  0  0  0  0  0  0  0  0
   42.3910   35.7590   27.5170 C   0  0  0  0  0  0  0  0  0  0  0  0
   42.8130   37.0920   27.8730 O   0  0  0  0  0  0  0  0  0  0  0  0
   39.4250   36.5880   28.1790 C   0  0  0  0  0  0  0  0  0  0  0  0
   41.3230   35.2040   28.5010 C   0  0  0  0  0  0  0  0  0  0  0  0
   40.4550   36.3880   28.8390 C   0  0  0  0  0  0  0  0  0  0  0  0
   38.0030   37.8950   27.9790 O   0  0  0  0  0  0  0  0  0  0  0  0
  3  9  2  0
  3  2  1  0
  3  6  1  0
  4  5  1  0
  4  7  1  0
  6  8  1  0
  7  1  1  0
  7  8  1  0
M  END
$$$$

     RDKit          3D

  7  7  0  0  0  0  0  0  0  0999 V2000
   39.3190   36.6930   26.2380 C   0  0  0  0  0  0  0  0  0  0  0  0
   42.4060   38.1640   25.1260 O   0  0  0  0  0  0  0  0  0  0  0  0
   40.2940   37.0800   25.1420 C   0  0  0  0  0  0  0  0  0  0  0  0
   40.9360   36.7390   28.0290 N   0  0  0  0  0  0  0  0  0  0  0  0
   41.5140   37.7110   27.2120 N   0  0  0  0  0  0  0  0  0  0  0  0
   41.4880   37.6080   25.6910 C   0  0  0  0  0  0  0  0  0  0  0  0
   40.0300   35.8530   27.2890 C   0  0  0  0  0  0  0  0  0  0  0  0
  1  7  1  0
  2  6  2  0
  3  6  1  0
  3  1  1  0
  5  4  1  0
  6  5  1  0
  7  4  1  0
M  END
$$$$

     RDKit          3D

  4  3  0  0  0  0  0  0  0  0999 V2000
   41.5000   36.8860   27.0880 C   0  0  0  0  0  0  0  0  0  0  0  0
   42.7380   38.3050   28.8280 C   0  0  0  0  0  0  0  0  0  0  0  0
   41.2510   37.5780   28.5780 C   0  0  0  0  0  0  0  0  0  0  0  0
   40.6220   36.9520   26.3220 O   0  0  0  0  0  0  0  0  0  0  0  0
  1  3  1  0
  3  2  1  0
  4  1  2  0
M  END
$$$$

     RDKit          3D

  7  6  0  0  0  0  0  0  0  0999 V2000
   36.5550   34.2690   30.0720 N   0  0  0  0  0  0  0  0  0  0  0  0
   37.2870   33.5650   31.0700 C   0  0  0  0  0  0  0  0  0  0  0  0
   36.4000   32.9960   32.1480 C   0  0  0  0  0  0  0  0  0  0  0  0
   36.6460   31.5570   32.3150 C   0  0  0  0  0  0  0  0  0  0  0  0
   35.2590   33.8600   32.5720 C   0  0  0  0  0  0  0  0  0  0  0  0
   33.9810   33.4540   32.1050 O   0  0  0  0  0  0  0  0  0  0  0  0
   37.2970   30.7810   30.8150 S   0  0  0  0  0  0  0  0  0  0  0  0
  1  2  1  0
  3  2  1  0
  3  4  1  0
  3  5  1  0
  6  5  1  0
  7  4  1  0
M  END
$$$$

     RDKit          3D

 11 12  0  0  0  0  0  0  0  0999 V2000
   36.8780   36.6430   29.4430 C   0  0  0  0  0  0  0  0  0  0  0  0
   41.3100   36.8980   27.1550 C   0  0  0  0  0  0  0  0  0  0  0  0
   41.0190   35.6770   26.3780 N   0  0  0  0  0  0  0  0  0  0  0  0
   39.4030   35.5050   28.9450 C   0  0  0  0  0  0  0  0  0  0  0  0
   38.5090   34.9690   29.7680 N   0  0  0  0  0  0  0  0  0  0  0  0
   40.1450   37.8360   27.4470 S   0  0  0  0  0  0  0  0  0  0  0  0
   35.6700   37.0870   29.7260 O   0  0  0  0  0  0  0  0  0  0  0  0
   41.9330   36.6800   25.8290 C   0  0  0  0  0  0  0  0  0  0  0  0
   37.7630   37.3000   28.5960 C   0  0  0  0  0  0  0  0  0  0  0  0
   39.0580   36.7870   28.4250 C   0  0  0  0  0  0  0  0  0  0  0  0
   37.2860   35.4730   30.0140 C   0  0  0  0  0  0  0  0  0  0  0  0
  1  7  1  0
  1 11  1  0
  2  6  1  0
  3  2  1  0
  4  5  1  0
  5 11  2  0
  6 10  1  0
  8  3  1  0
  8  2  1  0
  9  1  2  0
 10  9  1  0
 10  4  2  0
M  END
$$$$

     RDKit          3D

  8  8  0  0  0  0  0  0  0  0999 V2000
   39.1510   34.7040   28.0440 C   0  0  0  0  0  0  0  0  0  0  0  0
   37.7950   34.1640   31.6070 C   0  0  0  0  0  0  0  0  0  0  0  0
   36.8900   36.2160   30.7030 C   0  0  0  0  0  0  0  0  0  0  0  0
   37.6770   36.0940   29.5310 C   0  0  0  0  0  0  0  0  0  0  0  0
   38.5380   33.9980   30.4200 C   0  0  0  0  0  0  0  0  0  0  0  0
   40.6190   34.7940   28.0590 N   0  0  0  0  0  0  0  0  0  0  0  0
   36.9720   35.2840   31.6840 N   0  0  0  0  0  0  0  0  0  0  0  0
   38.4100   34.8890   29.3640 C   0  0  0  0  0  0  0  0  0  0  0  0
  1  6  1  0
  1  8  1  0
  2  7  1  0
  3  7  2  0
  4  3  1  0
  5  2  2  0
  8  4  2  0
  8  5  1  0
M  END
$$$$

     RDKit          3D

 11 11  0  0  0  0  0  0  0  0999 V2000
   36.5790   32.7390   31.3620 C   0  0  0  0  0  0  0  0  0  0  0  0
   39.4400   35.3260   29.8290 C   0  0  0  0  0  0  0  0  0  0  0  0
   38.6640   33.8470   31.4820 C   0  0  0  0  0  0  0  0  0  0  0  0
   35.3570   31.2010   32.9640 O   0  0  0  0  0  0  0  0  0  0  0  0
   37.2480   34.2500   29.5600 C   0  0  0  0  0  0  0  0  0  0  0  0
   40.3250   36.0680   29.6200 N   0  0  0  0  0  0  0  0  0  0  0  0
   38.2760   32.1090   33.2260 C   0  0  0  0  0  0  0  0  0  0  0  0
   37.7660   32.9240   32.0460 C   0  0  0  0  0  0  0  0  0  0  0  0
   36.4120   33.2520   30.0590 C   0  0  0  0  0  0  0  0  0  0  0  0
   38.4360   34.5020   30.2450 C   0  0  0  0  0  0  0  0  0  0  0  0
   35.3620   32.1490   32.0010 C   0  0  0  0  0  0  0  0  0  0  0  0
  1 11  1  0
  1  8  1  0
  2 10  1  0
  3  8  2  0
  5  9  1  0
  5 10  2  0
  6  2  3  0
  8  7  1  0
  9  1  2  0
 10  3  1  0
 11  4  1  0
M  END
$$$$

     RDKit          3D

 10 10  0  0  0  0  0  0  0  0999 V2000
   37.0370   35.4330   30.3900 C   0  0  0  0  0  0  0  0  0  0  0  0
   37.9660   37.1530   28.8880 C   0  0  0  0  0  0  0  0  0  0  0  0
   38.1130   34.6170   29.9920 C   0  0  0  0  0  0  0  0  0  0  0  0
   38.0000   38.9570   28.2540 Br  0  0  0  0  0  0  0  0  0  0  0  0
   39.0240   36.3550   28.6660 C   0  0  0  0  0  0  0  0  0  0  0  0
   40.7230   36.8800   27.9590 Br  0  0  0  0  0  0  0  0  0  0  0  0
   39.0430   35.1690   29.0530 C   0  0  0  0  0  0  0  0  0  0  0  0
   36.7090   36.7820   29.7160 S   0  0  0  0  0  0  0  0  0  0  0  0
   35.5930   35.1520   31.5330 Cl  0  0  0  0  0  0  0  0  0  0  0  0
   39.1410   32.6870   29.2950 Br  0  0  0  0  0  0  0  0  0  0  0  0
  1  9  1  0
  2  8  1  0
  3  1  1  0
  4  2  1  0
  5  2  2  0
  5  7  1  0
  6  5  1  0
  7  3  2  0
  8  1  1  0
 10  3  1  0
M  END
$$$$

     RDKit          3D

 17 21  0  0  0  0  0  0  0  0999 V2000
   41.9630   35.4980   27.3010 C   0  0  0  0  0  0  0  0  0  0  0  0
   35.9010   33.5930   31.3990 C   0  0  0  0  0  0  0  0  0  0  0  0
   39.2400   36.6170   29.6250 C   0  0  0  0  0  0  0  0  0  0  0  0
   40.4140   36.6760   28.9210 C   0  0  0  0  0  0  0  0  0  0  0  0
   35.2990   34.8820   31.4710 C   0  0  0  0  0  0  0  0  0  0  0  0
   36.0610   35.7720   30.9260 N   0  0  0  0  0  0  0  0  0  0  0  0
   41.0220   38.0710   28.7700 C   0  0  0  0  0  0  0  0  0  0  0  0
   38.8120   35.3850   29.6720 N   0  0  0  0  0  0  0  0  0  0  0  0
   37.0490   35.2020   30.5200 N   0  0  0  0  0  0  0  0  0  0  0  0
   35.1070   32.7350   31.9470 N   0  0  0  0  0  0  0  0  0  0  0  0
   40.8750   35.4980   28.3030 C   0  0  0  0  0  0  0  0  0  0  0  0
   34.1150   34.9010   32.0270 C   0  0  0  0  0  0  0  0  0  0  0  0
   38.0660   34.5630   30.2070 C   0  0  0  0  0  0  0  0  0  0  0  0
   40.3300   34.2740   28.5960 C   0  0  0  0  0  0  0  0  0  0  0  0
   33.8260   33.7840   32.3690 N   0  0  0  0  0  0  0  0  0  0  0  0
   39.1960   34.2940   29.3770 C   0  0  0  0  0  0  0  0  0  0  0  0
   37.2460   33.5820   30.7630 C   0  0  0  0  0  0  0  0  0  0  0  0
  1 11  1  0
  2  5  2  0
  2 10  1  0
  3  8  1  0
  4  3  1  0
  5 12  1  0
  6  5  1  0
  7  4  1  0
  8 13  1  0
  9 17  1  0
  9  6  1  0
 10 15  1  0
 11 14  1  0
 11  4  2  0
 12 15  2  0
 13 16  1  0
 13  9  1  0
 13 17  1  0
 14 16  2  0
 16  8  1  0
 17  2  1  0
M  END
$$$$

     RDKit          3D

  5  4  0  0  0  0  0  0  0  0999 V2000
   38.2360   27.9050   28.1900 C   0  0  0  0  0  0  0  0  0  0  0  0
   37.4630   30.5830   29.4480 Br  0  0  0  0  0  0  0  0  0  0  0  0
   37.9360   28.4980   26.5700 C   0  0  0  0  0  0  0  0  0  0  0  0
   38.9180   27.9320   31.1460 Br  0  0  0  0  0  0  0  0  0  0  0  0
   38.3810   28.6800   29.5430 S   0  0  0  0  0  0  0  0  0  0  0  0
  1  5  1  0
  2  5  1  0
  3  1  1  0
  5  4  1  0
M  END
$$$$

     RDKit          3D

 11 12  0  0  0  0  0  0  0  0999 V2000
   38.8940   36.2310   30.1820 C   0  0  0  0  0  0  0  0  0  0  0  0
   40.3310   35.1950   28.3260 C   0  0  0  0  0  0  0  0  0  0  0  0
   39.6130   36.1620   28.8950 C   0  0  0  0  0  0  0  0  0  0  0  0
   38.4870   38.5090   28.7060 C   0  0  0  0  0  0  0  0  0  0  0  0
   38.9270   35.0080   30.7830 C   0  0  0  0  0  0  0  0  0  0  0  0
   40.5040   34.0380   29.1050 C   0  0  0  0  0  0  0  0  0  0  0  0
   39.5960   33.9050   30.2960 C   0  0  0  0  0  0  0  0  0  0  0  0
   39.5450   39.1300   28.8490 O   0  0  0  0  0  0  0  0  0  0  0  0
   37.9700   34.7420   32.0540 C   0  0  0  0  0  0  0  0  0  0  0  0
   37.3140   39.0550   28.8690 O   0  0  0  0  0  0  0  0  0  0  0  0
   38.5150   37.0260   28.8980 C   0  0  0  0  0  0  0  0  0  0  0  0
  1  5  1  0
  2  3  1  0
  2  6  2  0
  3 11  1  0
  3  1  2  0
  4  8  2  0
  4 10  1  0
  5  9  1  0
  6  7  1  0
  7  5  2  0
 11  4  1  0
 11  1  1  0
M  END
$$$$

     RDKit          3D

  6  5  0  0  0  0  0  0  0  0999 V2000
   39.4250   36.4550   27.1700 O   0  0  0  0  0  0  0  0  0  0  0  0
   40.6330   36.1200   27.5360 C   0  0  0  0  0  0  0  0  0  0  0  0
   41.2540   35.0320   27.1260 N   0  0  0  0  0  0  0  0  0  0  0  0
   40.5610   38.4850   28.4290 C   0  0  0  0  0  0  0  0  0  0  0  0
   41.3700   37.1920   28.2690 C   0  0  0  0  0  0  0  0  0  0  0  0
   40.5450   39.7540   27.3000 S   0  0  0  0  0  0  0  0  0  0  0  0
  1  2  2  0
  2  5  1  0
  3  2  1  0
  5  4  1  0
  6  4  1  0
M  END
$$$$

     RDKit          3D

 15 16  0  0  0  0  0  0  0  0999 V2000
   39.4700   34.2430   28.7850 C   0  0  0  0  0  0  0  0  0  0  0  0
   38.0090   31.2850   30.4030 C   0  0  0  0  0  0  0  0  0  0  0  0
   35.0180   28.7950   34.1550 O   0  0  0  0  0  0  0  0  0  0  0  0
   34.5340   28.7940   35.6520 O   0  0  0  0  0  0  0  0  0  0  0  0
   38.8320   33.4700   29.8850 C   0  0  0  0  0  0  0  0  0  0  0  0
   37.5510   31.7040   31.6360 C   0  0  0  0  0  0  0  0  0  0  0  0
   34.8480   29.9560   34.7040 C   0  0  0  0  0  0  0  0  0  0  0  0
   37.7480   33.0660   31.9870 C   0  0  0  0  0  0  0  0  0  0  0  0
   38.3680   33.9680   31.1340 C   0  0  0  0  0  0  0  0  0  0  0  0
   34.7070   31.1910   33.8680 C   0  0  0  0  0  0  0  0  0  0  0  0
   36.6670   30.8940   32.3490 N   0  0  0  0  0  0  0  0  0  0  0  0
   38.7170   32.1360   29.5620 C   0  0  0  0  0  0  0  0  0  0  0  0
   36.4320   30.1710   35.1110 C   0  0  0  0  0  0  0  0  0  0  0  0
   40.2260   33.5970   27.9720 O   0  0  0  0  0  0  0  0  0  0  0  0
   35.5390   31.3780   32.9580 C   0  0  0  0  0  0  0  0  0  0  0  0
  1  5  1  0
  2  6  1  0
  3  7  1  0
  3  4  1  0
  5  9  2  0
  6  8  2  0
  6 11  1  0
  7 13  1  0
  7  4  1  0
  9  8  1  0
 10  7  1  0
 11 15  1  0
 12  5  1  0
 12  2  2  0
 14  1  2  0
 15 10  2  3
M  END
$$$$

     RDKit          3D

 13 14  0  0  0  0  0  0  0  0999 V2000
   37.8890   35.9960   29.4670 C   0  0  0  0  0  0  0  0  0  0  0  0
   34.4670   36.8130   30.3440 C   0  0  0  0  0  0  0  0  0  0  0  0
   36.9910   34.0640   30.9520 C   0  0  0  0  0  0  0  0  0  0  0  0
   34.1380   34.7900   31.8660 C   0  0  0  0  0  0  0  0  0  0  0  0
   34.9930   35.5370   30.9070 C   0  0  0  0  0  0  0  0  0  0  0  0
   38.2180   33.4610   30.5290 C   0  0  0  0  0  0  0  0  0  0  0  0
   40.0230   36.1440   28.8370 C   0  0  0  0  0  0  0  0  0  0  0  0
   39.3120   33.9560   29.5910 C   0  0  0  0  0  0  0  0  0  0  0  0
   36.8930   36.1280   29.8250 C   0  0  0  0  0  0  0  0  0  0  0  0
   37.1460   37.1760   29.1550 O   0  0  0  0  0  0  0  0  0  0  0  0
   36.3330   35.1900   30.5990 C   0  0  0  0  0  0  0  0  0  0  0  0
   39.8900   36.8270   27.5300 O   0  0  0  0  0  0  0  0  0  0  0  0
   38.9540   35.4000   29.3380 C   0  0  0  0  0  0  0  0  0  0  0  0
  1  9  2  0
  2  5  1  0
  5  4  1  0
  6  3  1  0
  8  6  1  0
  9 11  1  0
 10  1  1  0
 10  9  1  0
 11  5  1  0
 11  3  2  0
 12  7  1  0
 13  7  1  0
 13  1  1  0
 13  8  1  0
M  END
$$$$

     RDKit          3D

 11 11  0  0  0  0  0  0  0  0999 V2000
   38.3250   35.0260   29.6200 C   0  0  0  0  0  0  0  0  0  0  0  0
   36.4300   36.4370   29.8540 C   0  0  0  0  0  0  0  0  0  0  0  0
   40.3860   35.9730   28.8480 O   0  0  0  0  0  0  0  0  0  0  0  0
   39.8570   39.0050   28.1870 O   0  0  0  0  0  0  0  0  0  0  0  0
   38.6390   37.3520   29.3460 C   0  0  0  0  0  0  0  0  0  0  0  0
   37.2870   37.3240   29.3320 C   0  0  0  0  0  0  0  0  0  0  0  0
   38.8160   33.4290   29.5950 Cl  0  0  0  0  0  0  0  0  0  0  0  0
   36.4800   38.6200   28.4060 Br  0  0  0  0  0  0  0  0  0  0  0  0
   39.5570   38.5680   29.4310 C   0  0  0  0  0  0  0  0  0  0  0  0
   37.0360   35.2670   29.9320 C   0  0  0  0  0  0  0  0  0  0  0  0
   39.1390   36.0740   29.2870 C   0  0  0  0  0  0  0  0  0  0  0  0
  1 10  2  0
  2 10  1  0
  4  9  1  0
  5  9  1  0
  6  8  1  0
  6  5  1  0
  6  2  1  0
  7  1  1  0
 11  3  1  0
 11  5  1  0
 11  1  1  0
M  END
$$$$

     RDKit          3D

 10  9  0  0  0  0  0  0  0  0999 V2000
   40.4940   36.1170   26.1580 C   0  0  0  0  0  0  0  0  0  0  0  0
   41.3860   34.8070   28.4060 C   0  0  0  0  0  0  0  0  0  0  0  0
   41.5990   36.0530   28.8200 C   0  0  0  0  0  0  0  0  0  0  0  0
   39.9390   37.4790   25.6900 C   0  0  0  0  0  0  0  0  0  0  0  0
   39.7010   36.1950   27.4060 C   0  0  0  0  0  0  0  0  0  0  0  0
   40.6460   37.0600   28.2220 C   0  0  0  0  0  0  0  0  0  0  0  0
   41.6660   39.1150   28.8980 O   0  0  0  0  0  0  0  0  0  0  0  0
   42.3270   36.3630   29.7950 O   0  0  0  0  0  0  0  0  0  0  0  0
   41.5300   38.2280   27.9080 C   0  0  0  0  0  0  0  0  0  0  0  0
   40.9020   33.8610   28.0270 O   0  0  0  0  0  0  0  0  0  0  0  0
  1  5  1  0
  2  3  2  0
  3  8  1  0
  4  1  1  0
  6  5  1  0
  6  3  1  0
  9  6  1  0
  9  7  1  0
 10  2  2  0
M  END
$$$$
