
     RDKit          3D

 21 21  0  0  0  0  0  0  0  0999 V2000
   38.3190   30.5210   32.6880 C   0  0  0  0  0  0  0  0  0  0  0  0
   38.5170   36.6570   32.7530 O   0  0  0  0  0  0  0  0  0  0  0  0
   39.6740   36.1700   32.1490 C   0  0  0  0  0  0  0  0  0  0  0  0
   41.8230   38.5710   30.6040 C   0  0  0  0  0  0  0  0  0  0  0  0
   38.3010   31.0190   36.4460 C   0  0  0  0  0  0  0  0  0  0  0  0
   38.7930   31.8780   32.1000 C   0  0  0  0  0  0  0  0  0  0  0  0
   39.7930   34.7420   32.0620 C   0  0  0  0  0  0  0  0  0  0  0  0
   41.8920   37.3380   29.0780 C   0  0  0  0  0  0  0  0  0  0  0  0
   36.5550   28.8840   35.6300 C   0  0  0  0  0  0  0  0  0  0  0  0
   37.5940   30.5520   34.0370 C   0  0  0  0  0  0  0  0  0  0  0  0
   38.2590   32.9500   32.6050 O   0  0  0  0  0  0  0  0  0  0  0  0
   40.5150   38.2370   31.3060 C   0  0  0  0  0  0  0  0  0  0  0  0
   38.6290   34.1520   32.4560 C   0  0  0  0  0  0  0  0  0  0  0  0
   37.5980   35.3400   33.1210 S   0  0  0  0  0  0  0  0  0  0  0  0
   40.9400   34.0200   31.6700 O   0  0  0  0  0  0  0  0  0  0  0  0
   42.8670   39.0700   30.6310 O   0  0  0  0  0  0  0  0  0  0  0  0
   37.4780   29.1290   34.5500 C   0  0  0  0  0  0  0  0  0  0  0  0
   38.0700   29.6560   37.0360 C   0  0  0  0  0  0  0  0  0  0  0  0
   39.1780   38.9380   31.2560 O   0  0  0  0  0  0  0  0  0  0  0  0
   40.1710   36.8190   30.9310 C   0  0  0  0  0  0  0  0  0  0  0  0
   38.3390   31.3450   35.0960 C   0  0  0  0  0  0  0  0  0  0  0  0
  2 14  1  0
  3 20  1  0
  3  2  1  0
  4 16  2  0
  4 12  1  0
  5 18  1  0
  6 11  1  0
  6  1  1  0
  7  3  1  0
  7 13  2  0
  8  4  1  0
 10  1  1  0
 10 17  1  0
 10 21  1  0
 12 19  1  0
 13 11  1  0
 13 14  1  0
 15  7  1  0
 17  9  1  0
 20 12  1  0
 21  5  1  0
M  END
$$$$

     RDKit          3D

 11 11  0  0  0  0  0  0  0  0999 V2000
   43.0800   37.7990   31.6980 C   0  0  0  0  0  0  0  0  0  0  0  0
   42.9210   36.9400   30.5020 C   0  0  0  0  0  0  0  0  0  0  0  0
   42.1210   37.2130   32.6290 C   0  0  0  0  0  0  0  0  0  0  0  0
   44.4110   37.3480   32.3140 O   0  0  0  0  0  0  0  0  0  0  0  0
   39.4890   37.3390   30.4750 O   0  0  0  0  0  0  0  0  0  0  0  0
   42.1280   37.7170   33.8150 O   0  0  0  0  0  0  0  0  0  0  0  0
   39.6740   36.7240   31.8160 C   0  0  0  0  0  0  0  0  0  0  0  0
   43.9980   36.6640   29.8860 O   0  0  0  0  0  0  0  0  0  0  0  0
   42.1590   34.7700   30.8060 O   0  0  0  0  0  0  0  0  0  0  0  0
   41.7470   36.0720   30.6640 C   0  0  0  0  0  0  0  0  0  0  0  0
   41.1400   36.4520   31.9480 C   0  0  0  0  0  0  0  0  0  0  0  0
  1  4  1  0
  1  3  1  0
  2 10  1  0
  2  1  1  0
  3  6  1  0
  5  7  1  0
  8  2  2  0
 10  9  1  0
 10 11  1  0
 11  7  1  0
 11  3  1  0
M  END
$$$$

     RDKit          3D

 21 22  0  0  0  0  0  0  0  0999 V2000
   33.7890   34.3140   32.9490 C   0  0  0  0  0  0  0  0  0  0  0  0
   44.2110   36.9800   32.3010 C   0  0  0  0  0  0  0  0  0  0  0  0
   43.3680   35.8990   31.7080 C   0  0  0  0  0  0  0  0  0  0  0  0
   33.2680   36.2710   31.6290 C   0  0  0  0  0  0  0  0  0  0  0  0
   43.6250   37.6040   33.5140 N   0  0  0  0  0  0  0  0  0  0  0  0
   35.4830   35.5240   31.7340 C   0  0  0  0  0  0  0  0  0  0  0  0
   36.3820   34.5640   32.2550 O   0  0  0  0  0  0  0  0  0  0  0  0
   31.5390   35.0270   32.6710 C   0  0  0  0  0  0  0  0  0  0  0  0
   37.7680   36.5130   31.6980 C   0  0  0  0  0  0  0  0  0  0  0  0
   39.6670   35.4700   31.6930 N   0  0  0  0  0  0  0  0  0  0  0  0
   34.1720   35.3630   32.1400 C   0  0  0  0  0  0  0  0  0  0  0  0
   31.8960   33.3300   34.2340 N   0  0  0  0  0  0  0  0  0  0  0  0
   37.5610   35.1890   32.0030 C   0  0  0  0  0  0  0  0  0  0  0  0
   39.0930   36.6860   31.6160 N   0  0  0  0  0  0  0  0  0  0  0  0
   41.9590   36.4350   31.5150 C   0  0  0  0  0  0  0  0  0  0  0  0
   38.7550   34.5390   31.9280 C   0  0  0  0  0  0  0  0  0  0  0  0
   41.0740   35.2760   31.6030 C   0  0  0  0  0  0  0  0  0  0  0  0
   43.6650   35.1770   30.4030 C   0  0  0  0  0  0  0  0  0  0  0  0
   32.4570   34.1710   33.2320 C   0  0  0  0  0  0  0  0  0  0  0  0
   31.9180   36.1290   31.9170 C   0  0  0  0  0  0  0  0  0  0  0  0
   33.7000   37.2400   30.7370 N   0  0  0  0  0  0  0  0  0  0  0  0
  1 19  1  0
  2  5  1  0
  3 18  1  0
  3  2  1  0
  4 20  2  0
  4 11  1  0
  6 11  1  0
  6  7  1  0
  8 19  2  0
  9 13  1  0
 10 16  1  0
 11  1  2  0
 13  7  1  0
 14 10  1  0
 14  9  2  0
 15 17  1  0
 15  3  1  0
 16 13  2  0
 17 10  1  0
 19 12  1  0
 20  8  1  0
 21  4  1  0
M  END
$$$$

     RDKit          3D

 21 22  0  0  0  0  0  0  0  0999 V2000
   44.9550   38.2280   31.3290 C   0  0  0  0  0  0  0  0  0  0  0  0
   40.6630   37.3030   30.8600 C   0  0  0  0  0  0  0  0  0  0  0  0
   41.4650   35.6910   29.1470 F   0  0  0  0  0  0  0  0  0  0  0  0
   36.8860   32.9470   32.8140 C   0  0  0  0  0  0  0  0  0  0  0  0
   41.1150   37.9470   32.0760 C   0  0  0  0  0  0  0  0  0  0  0  0
   37.3710   34.2200   32.3900 C   0  0  0  0  0  0  0  0  0  0  0  0
   35.5630   32.6840   33.0740 N   0  0  0  0  0  0  0  0  0  0  0  0
   39.1680   36.9820   30.7500 C   0  0  0  0  0  0  0  0  0  0  0  0
   34.6460   33.7560   33.1420 C   0  0  0  0  0  0  0  0  0  0  0  0
   47.8400   37.2630   29.1140 C   0  0  0  0  0  0  0  0  0  0  0  0
   43.0440   37.0470   30.2620 C   0  0  0  0  0  0  0  0  0  0  0  0
   45.7260   37.4510   30.5810 C   0  0  0  0  0  0  0  0  0  0  0  0
   43.4340   38.0130   31.1320 C   0  0  0  0  0  0  0  0  0  0  0  0
   47.1930   37.1120   30.4550 C   0  0  0  0  0  0  0  0  0  0  0  0
   36.8990   36.5490   31.6830 C   0  0  0  0  0  0  0  0  0  0  0  0
   36.4380   35.3230   32.3080 C   0  0  0  0  0  0  0  0  0  0  0  0
   42.4660   38.2860   32.2010 C   0  0  0  0  0  0  0  0  0  0  0  0
   41.7210   36.6810   30.0710 C   0  0  0  0  0  0  0  0  0  0  0  0
   37.7480   37.4280   31.3270 C   0  0  0  0  0  0  0  0  0  0  0  0
   35.1100   35.0940   32.7660 C   0  0  0  0  0  0  0  0  0  0  0  0
   39.0340   36.3180   29.7460 O   0  0  0  0  0  0  0  0  0  0  0  0
  2  5  1  0
  3 18  1  0
  4  7  2  0
  5 17  2  0
  6  4  1  0
  7  9  1  0
  8  2  1  0
  8 19  1  0
 10 14  1  0
 11 13  2  0
 12  1  1  0
 13  1  1  0
 13 17  1  0
 14 12  1  0
 15 16  2  0
 16  6  1  0
 16 20  1  0
 18 11  1  0
 18  2  2  0
 19 15  2  0
 20  9  2  0
 21  8  2  0
M  END
$$$$

     RDKit          3D

 20 20  0  0  0  0  0  0  0  0999 V2000
   41.3620   35.7550   32.0370 C   0  0  0  0  0  0  0  0  0  0  0  0
   40.0730   36.0900   32.2890 C   0  0  0  0  0  0  0  0  0  0  0  0
   41.5670   39.3810   29.2340 C   0  0  0  0  0  0  0  0  0  0  0  0
   41.5550   38.6750   27.9950 C   0  0  0  0  0  0  0  0  0  0  0  0
   45.8310   38.3530   29.6130 C   0  0  0  0  0  0  0  0  0  0  0  0
   41.5900   37.9330   31.0130 C   0  0  0  0  0  0  0  0  0  0  0  0
   36.9620   34.7110   33.2870 C   0  0  0  0  0  0  0  0  0  0  0  0
   40.2870   38.2520   31.2590 C   0  0  0  0  0  0  0  0  0  0  0  0
   48.0550   38.5550   28.8130 C   0  0  0  0  0  0  0  0  0  0  0  0
   37.8340   35.7280   32.7240 C   0  0  0  0  0  0  0  0  0  0  0  0
   39.1310   35.2100   32.8130 C   0  0  0  0  0  0  0  0  0  0  0  0
   37.1890   33.5450   32.5750 O   0  0  0  0  0  0  0  0  0  0  0  0
   42.1240   36.7080   31.3830 C   0  0  0  0  0  0  0  0  0  0  0  0
   39.6010   37.3160   31.9470 C   0  0  0  0  0  0  0  0  0  0  0  0
   43.6930   38.6540   30.5310 C   0  0  0  0  0  0  0  0  0  0  0  0
   46.1540   38.8440   27.3390 C   0  0  0  0  0  0  0  0  0  0  0  0
   40.4910   40.4420   29.2950 C   0  0  0  0  0  0  0  0  0  0  0  0
   46.6800   39.0230   28.7380 N   0  0  0  0  0  0  0  0  0  0  0  0
   42.2580   38.8460   30.2990 N   0  0  0  0  0  0  0  0  0  0  0  0
   44.4980   38.1140   29.4410 C   0  0  0  0  0  0  0  0  0  0  0  0
  1  2  1  0
  2 11  1  0
  3 17  1  0
  3 19  1  0
  4  3  1  0
  6  8  2  0
  6 13  1  0
  8 14  1  0
 10 11  1  0
 10  7  1  0
 12  7  1  0
 13  1  2  0
 14  2  2  0
 16 18  1  0
 18  9  1  0
 18  5  1  0
 19 15  1  0
 19  6  1  0
 20  5  1  0
 20 15  1  0
M  END
$$$$

     RDKit          3D

 19 20  0  0  0  0  0  0  0  0999 V2000
   41.9690   35.9120   31.3880 C   0  0  0  0  0  0  0  0  0  0  0  0
   41.9190   37.6810   29.3540 O   0  0  0  0  0  0  0  0  0  0  0  0
   38.2640   35.2330   32.6650 S   0  0  0  0  0  0  0  0  0  0  0  0
   35.5800   34.9870   31.9590 C   0  0  0  0  0  0  0  0  0  0  0  0
   42.9470   38.9510   32.4900 C   0  0  0  0  0  0  0  0  0  0  0  0
   41.0240   38.3800   33.4040 O   0  0  0  0  0  0  0  0  0  0  0  0
   43.7060   40.1260   29.9730 C   0  0  0  0  0  0  0  0  0  0  0  0
   42.6260   39.0330   29.9630 C   0  0  0  0  0  0  0  0  0  0  0  0
   39.3850   36.4150   31.7680 C   0  0  0  0  0  0  0  0  0  0  0  0
   42.0240   36.4030   29.9220 C   0  0  0  0  0  0  0  0  0  0  0  0
   36.8270   35.8150   31.8510 C   0  0  0  0  0  0  0  0  0  0  0  0
   42.8370   35.4050   29.0830 C   0  0  0  0  0  0  0  0  0  0  0  0
   37.1490   36.8250   30.9940 C   0  0  0  0  0  0  0  0  0  0  0  0
   42.3280   38.5960   31.2670 N   0  0  0  0  0  0  0  0  0  0  0  0
   40.5830   35.6550   31.9650 C   0  0  0  0  0  0  0  0  0  0  0  0
   35.1280   34.5890   33.2590 N   0  0  0  0  0  0  0  0  0  0  0  0
   41.5430   38.6370   32.2270 C   0  0  0  0  0  0  0  0  0  0  0  0
   38.5760   37.2290   30.9270 C   0  0  0  0  0  0  0  0  0  0  0  0
   44.2210   35.6590   28.9080 O   0  0  0  0  0  0  0  0  0  0  0  0
  1 15  1  0
  2 10  1  0
  2  8  1  0
  4 16  1  0
  8  7  1  0
  8 14  1  0
  9 15  1  0
  9  3  1  0
 10 12  1  0
 10  1  1  0
 11  4  1  0
 11  3  1  0
 13 11  2  0
 14 17  1  0
 14  5  1  0
 17  5  1  0
 17  6  1  0
 18 13  1  0
 18  9  2  0
 19 12  1  0
M  END
$$$$

     RDKit          3D

 29 29  0  0  0  0  0  0  0  0999 V2000
   32.6500   33.0020   33.7100 C   0  0  0  0  0  0  0  0  0  0  0  0
   41.2320   36.4540   30.0710 C   0  0  0  0  0  0  0  0  0  0  0  0
   38.9150   34.8500   32.2680 C   0  0  0  0  0  0  0  0  0  0  0  0
   44.9910   38.2430   26.9960 N   0  0  0  0  0  0  0  0  0  0  0  0
   39.4950   33.4420   32.4220 C   0  0  0  0  0  0  0  0  0  0  0  0
   36.6670   33.6060   32.3920 C   0  0  0  0  0  0  0  0  0  0  0  0
   30.7550   35.1430   32.8600 C   0  0  0  0  0  0  0  0  0  0  0  0
   37.3740   34.9020   32.3880 C   0  0  0  0  0  0  0  0  0  0  0  0
   33.3300   31.8820   33.6130 N   0  0  0  0  0  0  0  0  0  0  0  0
   45.8250   39.1200   26.2150 C   0  0  0  0  0  0  0  0  0  0  0  0
   33.3090   30.8060   34.4670 N   0  0  0  0  0  0  0  0  0  0  0  0
   35.3130   33.5790   32.7290 C   0  0  0  0  0  0  0  0  0  0  0  0
   41.6910   37.8140   29.9570 N   0  0  0  0  0  0  0  0  0  0  0  0
   47.1870   38.7210   25.8060 C   0  0  0  0  0  0  0  0  0  0  0  0
   33.1290   34.4170   33.4310 N   0  0  0  0  0  0  0  0  0  0  0  0
   45.4960   37.2300   27.6030 O   0  0  0  0  0  0  0  0  0  0  0  0
   32.0550   35.3660   33.5360 N   0  0  0  0  0  0  0  0  0  0  0  0
   42.5970   38.0790   27.8680 C   0  0  0  0  0  0  0  0  0  0  0  0
   39.8740   36.5570   30.7800 C   0  0  0  0  0  0  0  0  0  0  0  0
   43.6690   39.1380   29.8400 O   0  0  0  0  0  0  0  0  0  0  0  0
   31.5760   32.8210   34.1390 O   0  0  0  0  0  0  0  0  0  0  0  0
   35.1120   35.9160   32.8840 C   0  0  0  0  0  0  0  0  0  0  0  0
   43.5360   38.6530   26.8420 C   0  0  0  0  0  0  0  0  0  0  0  0
   45.7660   40.5240   26.3030 C   0  0  0  0  0  0  0  0  0  0  0  0
   39.1710   35.2190   30.8400 C   0  0  0  0  0  0  0  0  0  0  0  0
   34.5330   34.6800   33.1570 C   0  0  0  0  0  0  0  0  0  0  0  0
   43.8880   36.7320   29.6630 O   0  0  0  0  0  0  0  0  0  0  0  0
   43.0110   37.9060   29.3340 P   0  0  0  0  0  0  0  0  0  0  0  0
   36.4050   36.0630   32.3920 C   0  0  0  0  0  0  0  0  0  0  0  0
  1 21  2  0
  2 19  1  0
  3  8  1  0
  3  5  1  0
  4 16  1  0
  6 12  1  0
  7 17  1  0
  8 29  1  0
  8  6  2  0
  9  1  1  0
  9 11  1  0
 10 24  1  0
 10  4  1  0
 12 26  2  0
 13  2  1  0
 14 10  1  0
 15 17  1  0
 15  1  1  0
 18 28  1  0
 19 25  1  0
 22 26  1  0
 23  4  1  0
 23 18  1  0
 25  3  1  0
 26 15  1  0
 28 27  2  0
 28 20  1  0
 28 13  1  0
 29 22  2  0
M  END
$$$$

     RDKit          3D

  8  7  0  0  0  0  0  0  0  0999 V2000
   43.4480   39.5930   31.2870 C   0  0  0  0  0  0  0  0  0  0  0  0
   43.1920   37.2750   30.7820 C   0  0  0  0  0  0  0  0  0  0  0  0
   42.2620   38.0260   30.0550 O   0  0  0  0  0  0  0  0  0  0  0  0
   43.7110   36.0360   30.0580 C   0  0  0  0  0  0  0  0  0  0  0  0
   44.2630   38.3390   31.0470 C   0  0  0  0  0  0  0  0  0  0  0  0
   42.5360   35.3740   29.3760 O   0  0  0  0  0  0  0  0  0  0  0  0
   42.2890   39.2900   32.0160 O   0  0  0  0  0  0  0  0  0  0  0  0
   45.1310   38.3850   31.1040 O   0  0  0  0  0  0  0  0  0  0  0  0
  1  7  1  0
  2  3  1  0
  2  5  1  0
  4  2  1  0
  5  8  2  0
  5  1  1  0
  6  4  1  0
M  END
$$$$

     RDKit          3D

 16 18  0  0  0  0  0  0  0  0999 V2000
   39.2420   34.8680   32.6790 C   0  0  0  0  0  0  0  0  0  0  0  0
   42.2760   33.6580   30.5040 O   0  0  0  0  0  0  0  0  0  0  0  0
   37.1740   34.8240   33.7600 O   0  0  0  0  0  0  0  0  0  0  0  0
   38.0620   38.0450   29.8260 O   0  0  0  0  0  0  0  0  0  0  0  0
   39.1820   36.3850   32.2490 C   0  0  0  0  0  0  0  0  0  0  0  0
   41.0670   37.9990   31.5960 C   0  0  0  0  0  0  0  0  0  0  0  0
   40.1390   39.4450   29.9160 C   0  0  0  0  0  0  0  0  0  0  0  0
   40.3430   34.1020   32.4650 C   0  0  0  0  0  0  0  0  0  0  0  0
   40.2560   33.2410   31.3650 N   0  0  0  0  0  0  0  0  0  0  0  0
   41.0410   39.4700   31.1560 C   0  0  0  0  0  0  0  0  0  0  0  0
   38.2400   34.2410   33.3330 C   0  0  0  0  0  0  0  0  0  0  0  0
   39.7060   37.4710   31.3160 N   0  0  0  0  0  0  0  0  0  0  0  0
   39.1620   38.2660   30.2610 C   0  0  0  0  0  0  0  0  0  0  0  0
   38.3570   33.0760   33.8180 O   0  0  0  0  0  0  0  0  0  0  0  0
   41.6040   34.7860   32.3120 N   0  0  0  0  0  0  0  0  0  0  0  0
   41.2820   34.2250   31.0840 C   0  0  0  0  0  0  0  0  0  0  0  0
  1  5  1  0
  1 11  1  0
  4 13  2  0
  7 13  1  0
  7 10  1  0
  8  1  1  0
  9  8  1  0
 10  6  1  0
 11  3  2  0
 11 14  1  0
 12  6  1  0
 12  5  1  0
 13 12  1  0
 15  8  1  0
 16  2  1  0
 16  9  1  0
 16 15  1  0
 16  8  1  0
M  END
$$$$

     RDKit          3D

 19 20  0  0  0  0  0  0  0  0999 V2000
   44.1480   41.1600   32.5990 O   0  0  0  0  0  0  0  0  0  0  0  0
   43.1690   40.2120   32.4200 C   0  0  0  0  0  0  0  0  0  0  0  0
   39.5090   32.4570   32.8750 C   0  0  0  0  0  0  0  0  0  0  0  0
   40.6110   36.7510   32.3670 C   0  0  0  0  0  0  0  0  0  0  0  0
   40.1180   34.6580   32.8840 N   0  0  0  0  0  0  0  0  0  0  0  0
   39.7970   33.5300   34.9530 C   0  0  0  0  0  0  0  0  0  0  0  0
   39.0270   31.2890   34.8280 C   0  0  0  0  0  0  0  0  0  0  0  0
   39.7160   33.5820   33.5720 C   0  0  0  0  0  0  0  0  0  0  0  0
   42.9080   39.5540   33.3510 O   0  0  0  0  0  0  0  0  0  0  0  0
   42.3600   41.6910   29.7870 C   0  0  0  0  0  0  0  0  0  0  0  0
   42.2000   40.0100   31.5240 C   0  0  0  0  0  0  0  0  0  0  0  0
   39.4320   32.3940   35.6250 C   0  0  0  0  0  0  0  0  0  0  0  0
   41.5910   40.5010   29.5660 O   0  0  0  0  0  0  0  0  0  0  0  0
   43.6430   41.6480   29.4040 O   0  0  0  0  0  0  0  0  0  0  0  0
   40.8560   38.1630   32.6730 C   0  0  0  0  0  0  0  0  0  0  0  0
   41.7750   41.0400   30.8830 C   0  0  0  0  0  0  0  0  0  0  0  0
   39.0790   31.3030   33.5200 C   0  0  0  0  0  0  0  0  0  0  0  0
   41.4630   38.7420   31.5020 C   0  0  0  0  0  0  0  0  0  0  0  0
   40.6080   35.8460   33.4380 C   0  0  0  0  0  0  0  0  0  0  0  0
  2  1  2  0
  2  9  1  0
  3 17  2  0
  3  8  1  0
  4 15  1  0
  4 19  1  0
  5 19  1  0
  5  8  1  0
  6 12  1  0
  7 12  2  0
  8  6  2  0
 10 14  1  0
 10 16  1  0
 11 18  1  0
 11  2  1  0
 13 10  1  0
 13 16  1  0
 16 11  1  0
 17  7  1  0
 18 15  1  0
M  END
$$$$

     RDKit          3D

  4  3  0  0  0  0  0  0  0  0999 V2000
   43.2910   35.2030   28.7130 C   0  0  0  0  0  0  0  0  0  0  0  0
   43.7050   34.7360   27.4760 N   0  0  0  0  0  0  0  0  0  0  0  0
   42.8330   36.4610   28.4220 O   0  0  0  0  0  0  0  0  0  0  0  0
   43.4850   34.5830   29.7920 O   0  0  0  0  0  0  0  0  0  0  0  0
  1  4  1  0
  2  1  1  0
  3  1  2  0
M  END
$$$$

     RDKit          3D

  7  7  0  0  0  0  0  0  0  0999 V2000
   42.9160   35.7420   30.4040 N   0  0  0  0  0  0  0  0  0  0  0  0
   42.3160   36.8850   30.6710 C   0  0  0  0  0  0  0  0  0  0  0  0
   41.4270   36.7460   31.8020 C   0  0  0  0  0  0  0  0  0  0  0  0
   42.4510   34.9020   31.4240 C   0  0  0  0  0  0  0  0  0  0  0  0
   39.9590   37.2920   33.4970 N   0  0  0  0  0  0  0  0  0  0  0  0
   41.5630   35.4940   32.2680 N   0  0  0  0  0  0  0  0  0  0  0  0
   40.7090   37.7690   32.3920 N   0  0  0  0  0  0  0  0  0  0  0  0
  1  2  2  0
  1  4  1  0
  2  3  1  0
  3  6  2  0
  3  7  1  0
  4  6  1  0
  7  5  1  0
M  END
$$$$

     RDKit          3D

 43 46  0  0  0  0  0  0  0  0999 V2000
   34.5990   26.1730   36.1980 N   0  0  0  0  0  0  0  0  0  0  0  0
   41.7550   41.2540   27.6140 O   0  0  0  0  0  0  0  0  0  0  0  0
   39.1430   23.6520   37.5820 C   0  0  0  0  0  0  0  0  0  0  0  0
   40.4890   42.1410   24.8410 O   0  0  0  0  0  0  0  0  0  0  0  0
   38.1200   34.2550   32.5320 C   0  0  0  0  0  0  0  0  0  0  0  0
   34.8290   28.2100   34.8920 N   0  0  0  0  0  0  0  0  0  0  0  0
   37.6570   33.2300   33.5290 C   0  0  0  0  0  0  0  0  0  0  0  0
   41.9120   44.0490   27.2360 C   0  0  0  0  0  0  0  0  0  0  0  0
   33.9060   23.7240   36.3070 C   0  0  0  0  0  0  0  0  0  0  0  0
   36.7620   23.5130   38.5670 C   0  0  0  0  0  0  0  0  0  0  0  0
   34.9150   26.9040   35.1290 C   0  0  0  0  0  0  0  0  0  0  0  0
   40.1350   41.0510   25.4850 C   0  0  0  0  0  0  0  0  0  0  0  0
   35.9380   31.6090   34.1670 N   0  0  0  0  0  0  0  0  0  0  0  0
   41.8800   40.2270   26.7740 C   0  0  0  0  0  0  0  0  0  0  0  0
   38.3030   31.9290   33.1260 C   0  0  0  0  0  0  0  0  0  0  0  0
   39.6890   40.4780   26.7110 C   0  0  0  0  0  0  0  0  0  0  0  0
   37.6920   23.7870   37.3650 C   0  0  0  0  0  0  0  0  0  0  0  0
   39.0920   43.2100   26.8220 O   0  0  0  0  0  0  0  0  0  0  0  0
   35.9390   26.1430   34.3510 C   0  0  0  0  0  0  0  0  0  0  0  0
   42.6340   37.5940   29.0780 C   0  0  0  0  0  0  0  0  0  0  0  0
   34.2450   23.3810   37.8380 C   0  0  0  0  0  0  0  0  0  0  0  0
   40.7190   42.0310   28.1490 C   0  0  0  0  0  0  0  0  0  0  0  0
   35.8970   29.2030   34.8280 C   0  0  0  0  0  0  0  0  0  0  0  0
   41.1940   39.0720   24.9380 O   0  0  0  0  0  0  0  0  0  0  0  0
   40.9830   40.0240   26.0080 C   0  0  0  0  0  0  0  0  0  0  0  0
   35.5620   22.7530   38.0520 C   0  0  0  0  0  0  0  0  0  0  0  0
   41.2620   43.3430   28.3420 N   0  0  0  0  0  0  0  0  0  0  0  0
   41.8910   38.7440   28.6760 O   0  0  0  0  0  0  0  0  0  0  0  0
   41.6550   36.4640   28.8960 C   0  0  0  0  0  0  0  0  0  0  0  0
   40.1440   34.8800   31.7610 C   0  0  0  0  0  0  0  0  0  0  0  0
   42.1680   39.1260   27.6760 C   0  0  0  0  0  0  0  0  0  0  0  0
   36.7920   32.0970   33.0960 C   0  0  0  0  0  0  0  0  0  0  0  0
   40.3840   35.9810   30.8000 C   0  0  0  0  0  0  0  0  0  0  0  0
   41.5240   35.7920   30.1400 N   0  0  0  0  0  0  0  0  0  0  0  0
   35.4290   24.7880   34.7140 N   0  0  0  0  0  0  0  0  0  0  0  0
   39.6260   36.9500   30.7110 O   0  0  0  0  0  0  0  0  0  0  0  0
   34.7080   24.8720   35.8140 C   0  0  0  0  0  0  0  0  0  0  0  0
   43.3100   37.6090   30.2840 O   0  0  0  0  0  0  0  0  0  0  0  0
   41.8440   38.1460   27.2390 O   0  0  0  0  0  0  0  0  0  0  0  0
   36.4520   24.7730   39.0390 O   0  0  0  0  0  0  0  0  0  0  0  0
   39.4360   41.8780   27.3910 C   0  0  0  0  0  0  0  0  0  0  0  0
   35.3750   30.5940   34.9040 C   0  0  0  0  0  0  0  0  0  0  0  0
   39.3190   35.1290   32.9480 C   0  0  0  0  0  0  0  0  0  0  0  0
  2 22  1  0
  5 43  1  0
  6 11  1  0
  7  5  1  0
  8 27  1  0
  9 21  1  0
 10 40  1  0
 11  1  2  0
 12  4  1  0
 12 25  1  0
 12 16  1  0
 13 42  2  3
 14  2  1  0
 14 31  1  0
 15  7  1  0
 16 41  1  0
 17  3  1  0
 17 10  1  0
 18 41  1  0
 19 35  1  0
 19 11  1  0
 20 38  1  0
 21 26  1  0
 22 27  1  0
 23  6  1  0
 23 42  1  0
 24 25  1  0
 25 16  1  0
 25 14  1  0
 26 10  1  0
 28 20  1  0
 29 20  1  0
 29 34  1  0
 30 43  1  0
 31 28  1  0
 32 15  1  0
 32  7  1  0
 32 13  1  0
 33 30  1  0
 34 33  1  0
 35 37  1  0
 36 33  2  0
 37  1  2  0
 37  9  1  0
 39 31  1  0
 41 22  1  0
M  END
$$$$

     RDKit          3D

 10 10  0  0  0  0  0  0  0  0999 V2000
   38.7510   39.1510   29.0530 C   0  0  0  0  0  0  0  0  0  0  0  0
   43.0550   37.0850   30.8190 C   0  0  0  0  0  0  0  0  0  0  0  0
   39.6540   39.6900   31.2060 C   0  0  0  0  0  0  0  0  0  0  0  0
   40.8080   37.9410   29.9970 C   0  0  0  0  0  0  0  0  0  0  0  0
   40.4880   39.6050   32.2790 C   0  0  0  0  0  0  0  0  0  0  0  0
   41.9990   38.3640   33.4480 O   0  0  0  0  0  0  0  0  0  0  0  0
   41.7740   37.9120   31.0100 C   0  0  0  0  0  0  0  0  0  0  0  0
   39.6920   38.7730   30.1330 C   0  0  0  0  0  0  0  0  0  0  0  0
   41.4660   38.5800   32.2950 C   0  0  0  0  0  0  0  0  0  0  0  0
   38.7890   38.5510   27.7070 C   0  0  0  0  0  0  0  0  0  0  0  0
  1  8  1  0
  2  7  1  0
  3  5  1  0
  4  8  1  0
  4  7  2  0
  5  9  2  0
  7  9  1  0
  8  3  2  0
  9  6  1  0
 10  1  1  0
M  END
$$$$

     RDKit          3D

 21 21  0  0  0  0  0  0  0  0999 V2000
   39.9850   35.2870   33.3900 N   0  0  0  0  0  0  0  0  0  0  0  0
   39.2950   34.4940   36.1060 S   0  0  0  0  0  0  0  0  0  0  0  0
   39.3140   34.1900   33.5240 C   0  0  0  0  0  0  0  0  0  0  0  0
   37.5110   32.8710   34.7170 C   0  0  0  0  0  0  0  0  0  0  0  0
   36.4740   33.2400   35.6420 C   0  0  0  0  0  0  0  0  0  0  0  0
   37.2400   31.5860   34.0050 C   0  0  0  0  0  0  0  0  0  0  0  0
   35.2180   33.2520   35.1000 N   0  0  0  0  0  0  0  0  0  0  0  0
   41.2420   35.3090   32.9670 C   0  0  0  0  0  0  0  0  0  0  0  0
   36.9710   33.2330   36.8900 O   0  0  0  0  0  0  0  0  0  0  0  0
   42.2370   35.5790   33.8660 C   0  0  0  0  0  0  0  0  0  0  0  0
   39.4160   36.6440   33.7860 C   0  0  0  0  0  0  0  0  0  0  0  0
   38.3430   35.4360   37.1240 N   0  0  0  0  0  0  0  0  0  0  0  0
   38.0710   31.4830   32.9090 O   0  0  0  0  0  0  0  0  0  0  0  0
   44.1180   35.6860   32.3040 C   0  0  0  0  0  0  0  0  0  0  0  0
   38.5960   33.6910   34.5310 C   0  0  0  0  0  0  0  0  0  0  0  0
   43.5370   36.3290   33.4980 C   0  0  0  0  0  0  0  0  0  0  0  0
   36.1330   31.0610   33.8930 O   0  0  0  0  0  0  0  0  0  0  0  0
   43.6840   35.3840   31.0580 C   0  0  0  0  0  0  0  0  0  0  0  0
   41.3650   34.9940   31.6770 C   0  0  0  0  0  0  0  0  0  0  0  0
   42.4500   35.0560   30.7860 C   0  0  0  0  0  0  0  0  0  0  0  0
   44.7120   35.2180   30.2680 O   0  0  0  0  0  0  0  0  0  0  0  0
  1  3  1  0
  1 11  1  0
  2 12  1  0
  4  6  1  0
  4  5  1  0
  5  9  2  0
  7  5  1  0
  8  1  1  0
  8 10  1  0
 13  6  2  0
 14 16  1  0
 15  3  1  0
 15  4  1  0
 15  2  1  0
 16 10  1  0
 17  6  1  0
 18 14  1  0
 19  8  2  0
 20 18  2  0
 20 19  1  0
 21 18  1  0
M  END
$$$$

     RDKit          3D

 15 15  0  0  0  0  0  0  0  0999 V2000
   44.0180   35.9310   28.8390 O   0  0  0  0  0  0  0  0  0  0  0  0
   40.3620   36.3070   33.2650 O   0  0  0  0  0  0  0  0  0  0  0  0
   42.2700   37.4130   31.2840 C   0  0  0  0  0  0  0  0  0  0  0  0
   43.6030   39.1060   29.6600 C   0  0  0  0  0  0  0  0  0  0  0  0
   44.2020   37.0740   28.5950 C   0  0  0  0  0  0  0  0  0  0  0  0
   42.0260   38.5340   32.3380 C   0  0  0  0  0  0  0  0  0  0  0  0
   42.9150   39.7060   32.0280 C   0  0  0  0  0  0  0  0  0  0  0  0
   42.9460   40.1310   30.5730 C   0  0  0  0  0  0  0  0  0  0  0  0
   39.9790   36.0900   31.7300 P   0  0  0  0  0  0  0  0  0  0  0  0
   39.2450   37.3110   31.2310 O   0  0  0  0  0  0  0  0  0  0  0  0
   44.3370   37.8060   30.0560 C   0  0  0  0  0  0  0  0  0  0  0  0
   39.2940   34.7500   31.4450 O   0  0  0  0  0  0  0  0  0  0  0  0
   41.5100   36.1310   30.9000 C   0  0  0  0  0  0  0  0  0  0  0  0
   43.6890   37.1940   31.1020 O   0  0  0  0  0  0  0  0  0  0  0  0
   44.8220   37.5410   27.6250 O   0  0  0  0  0  0  0  0  0  0  0  0
  3 13  1  0
  3  6  1  0
  4 11  1  0
  4  8  1  0
  5  1  1  0
  7  6  1  0
  8  7  1  0
  9  2  1  0
 10  9  2  0
 11  5  1  0
 11 14  1  0
 12  9  1  0
 13  9  1  0
 14  3  1  0
 15  5  2  0
M  END
$$$$

     RDKit          3D

  6  5  0  0  0  0  0  0  0  0999 V2000
   43.7640   36.5810   28.7290 O   0  0  0  0  0  0  0  0  0  0  0  0
   42.6360   37.1290   28.8750 C   0  0  0  0  0  0  0  0  0  0  0  0
   42.3470   38.4520   28.1340 C   0  0  0  0  0  0  0  0  0  0  0  0
   43.5370   39.3950   28.2220 C   0  0  0  0  0  0  0  0  0  0  0  0
   41.7530   36.5220   29.4920 O   0  0  0  0  0  0  0  0  0  0  0  0
   43.8200   40.0130   29.2380 O   0  0  0  0  0  0  0  0  0  0  0  0
  1  2  2  0
  2  5  1  0
  3  4  1  0
  3  2  1  0
  4  6  2  0
M  END
$$$$

     RDKit          3D

 26 28  0  0  0  0  0  0  0  0999 V2000
   33.5420   36.1040   33.4560 C   0  0  0  0  0  0  0  0  0  0  0  0
   40.1920   33.6570   32.6050 C   0  0  0  0  0  0  0  0  0  0  0  0
   44.5680   37.7580   31.8760 C   0  0  0  0  0  0  0  0  0  0  0  0
   39.2410   30.3830   33.8980 O   0  0  0  0  0  0  0  0  0  0  0  0
   36.7930   34.4330   33.3840 N   0  0  0  0  0  0  0  0  0  0  0  0
   36.0030   35.6230   33.3300 C   0  0  0  0  0  0  0  0  0  0  0  0
   42.3950   37.6130   30.6280 C   0  0  0  0  0  0  0  0  0  0  0  0
   34.5510   35.2440   33.6450 C   0  0  0  0  0  0  0  0  0  0  0  0
   38.9450   34.3240   32.6520 C   0  0  0  0  0  0  0  0  0  0  0  0
   43.8700   37.9050   30.5650 C   0  0  0  0  0  0  0  0  0  0  0  0
   44.6780   37.1150   34.3290 C   0  0  0  0  0  0  0  0  0  0  0  0
   32.4530   35.7930   34.3280 C   0  0  0  0  0  0  0  0  0  0  0  0
   32.5100   34.4820   35.0150 C   0  0  0  0  0  0  0  0  0  0  0  0
   44.5640   37.5580   35.5170 O   0  0  0  0  0  0  0  0  0  0  0  0
   42.3430   36.4780   31.6270 C   0  0  0  0  0  0  0  0  0  0  0  0
   43.7530   37.6750   33.2130 C   0  0  0  0  0  0  0  0  0  0  0  0
   39.1870   31.7030   33.5800 C   0  0  0  0  0  0  0  0  0  0  0  0
   42.5110   37.0140   32.9720 N   0  0  0  0  0  0  0  0  0  0  0  0
   44.6010   37.0790   36.8660 C   0  0  0  0  0  0  0  0  0  0  0  0
   39.9980   36.4250   32.1770 N   0  0  0  0  0  0  0  0  0  0  0  0
   37.8740   33.7070   33.2250 C   0  0  0  0  0  0  0  0  0  0  0  0
   34.1480   33.8180   34.6710 S   0  0  0  0  0  0  0  0  0  0  0  0
   38.7760   35.6380   32.2610 N   0  0  0  0  0  0  0  0  0  0  0  0
   41.0680   35.7220   31.4780 C   0  0  0  0  0  0  0  0  0  0  0  0
   37.9800   32.4010   33.7290 C   0  0  0  0  0  0  0  0  0  0  0  0
   40.3140   32.3530   33.0740 C   0  0  0  0  0  0  0  0  0  0  0  0
  1  8  1  0
  1 12  1  0
  2  9  2  0
  2 26  1  0
  3 16  1  0
  6  5  1  0
  7 15  1  0
  8  6  1  0
  8 22  1  0
  9 21  1  0
 10  7  1  0
 10  3  1  0
 11 14  1  0
 12 13  1  0
 14 19  1  0
 15 24  1  0
 15 18  1  0
 16 11  1  0
 17 25  1  0
 17  4  1  0
 18 16  1  0
 20 23  1  0
 21  5  1  0
 21 25  2  0
 22 13  1  0
 23  9  1  0
 24 20  1  0
 26 17  2  0
M  END
$$$$

     RDKit          3D

  7  6  0  0  0  0  0  0  0  0999 V2000
   42.2400   34.8250   30.4230 O   0  0  0  0  0  0  0  0  0  0  0  0
   41.9190   37.4200   29.9200 C   0  0  0  0  0  0  0  0  0  0  0  0
   43.0800   37.2770   30.5160 C   0  0  0  0  0  0  0  0  0  0  0  0
   44.3360   35.5230   30.8350 O   0  0  0  0  0  0  0  0  0  0  0  0
   43.1520   35.7710   30.4080 C   0  0  0  0  0  0  0  0  0  0  0  0
   42.9390   37.6030   31.9070 N   0  0  0  0  0  0  0  0  0  0  0  0
   41.2220   36.6980   31.0100 O   0  0  0  0  0  0  0  0  0  0  0  0
  2  3  1  0
  2  7  1  0
  3  6  1  0
  5  1  2  0
  5  3  1  0
  5  4  1  0
M  END
$$$$

     RDKit          3D

  9  9  0  0  0  0  0  0  0  0999 V2000
   42.5480   35.2730   28.9610 O   0  0  0  0  0  0  0  0  0  0  0  0
   42.1440   37.2770   29.2920 N   0  0  0  0  0  0  0  0  0  0  0  0
   43.0150   36.3880   29.2260 C   0  0  0  0  0  0  0  0  0  0  0  0
   44.2310   36.6310   29.7910 C   0  0  0  0  0  0  0  0  0  0  0  0
   44.4060   37.7180   30.5790 C   0  0  0  0  0  0  0  0  0  0  0  0
   43.5740   39.8860   31.2900 C   0  0  0  0  0  0  0  0  0  0  0  0
   42.3650   38.3420   29.9460 C   0  0  0  0  0  0  0  0  0  0  0  0
   43.4940   38.6540   30.4370 C   0  0  0  0  0  0  0  0  0  0  0  0
   44.0280   40.7900   31.7220 N   0  0  0  0  0  0  0  0  0  0  0  0
  1  3  2  0
  2  7  2  0
  3  2  1  0
  3  4  1  0
  4  5  1  0
  6  9  3  0
  7  8  1  0
  8  5  1  0
  8  6  1  0
M  END
$$$$
