
     RDKit          3D

 22 21  0  0  0  0  0  0  0  0999 V2000
   36.7490   31.8650   35.6570 N   0  0  0  0  0  0  0  0  0  0  0  0
   42.5260   35.0050   25.2370 C   0  0  0  0  0  0  0  0  0  0  0  0
   39.8450   32.4290   30.4970 O   0  0  0  0  0  0  0  0  0  0  0  0
   36.2380   32.3760   32.8090 C   0  0  0  0  0  0  0  0  0  0  0  0
   36.4200   33.6330   33.7010 C   0  0  0  0  0  0  0  0  0  0  0  0
   35.4680   33.9040   36.6650 S   0  0  0  0  0  0  0  0  0  0  0  0
   38.8380   33.1490   30.4510 C   0  0  0  0  0  0  0  0  0  0  0  0
   36.3110   33.9090   37.8810 O   0  0  0  0  0  0  0  0  0  0  0  0
   39.7940   35.5360   27.4900 C   0  0  0  0  0  0  0  0  0  0  0  0
   34.8680   35.0320   36.2720 N   0  0  0  0  0  0  0  0  0  0  0  0
   38.6670   34.0910   29.1990 C   0  0  0  0  0  0  0  0  0  0  0  0
   37.9030   33.1650   31.4130 N   0  0  0  0  0  0  0  0  0  0  0  0
   43.6540   35.0220   25.8300 O   0  0  0  0  0  0  0  0  0  0  0  0
   40.4690   36.3840   24.5160 C   0  0  0  0  0  0  0  0  0  0  0  0
   40.9710   36.1160   26.9780 C   0  0  0  0  0  0  0  0  0  0  0  0
   37.6760   32.0040   32.3130 C   0  0  0  0  0  0  0  0  0  0  0  0
   42.4490   37.3710   25.4410 C   0  0  0  0  0  0  0  0  0  0  0  0
   42.3790   34.2050   24.3390 O   0  0  0  0  0  0  0  0  0  0  0  0
   34.3280   32.8480   36.7330 O   0  0  0  0  0  0  0  0  0  0  0  0
   36.3850   33.5100   35.2640 C   0  0  0  0  0  0  0  0  0  0  0  0
   41.5510   35.9800   25.5650 C   0  0  0  0  0  0  0  0  0  0  0  0
   39.9360   34.3320   28.4280 C   0  0  0  0  0  0  0  0  0  0  0  0
  2 21  1  0
  2 13  1  0
  4  5  1  0
  5 20  1  0
  6 19  2  0
  6  8  2  0
  7  3  2  0
  7 12  1  0
  9 22  1  0
 10  6  1  0
 11  7  1  0
 12 16  1  0
 14 21  1  0
 15  9  1  0
 16  4  1  0
 17 21  1  0
 18  2  2  0
 20  1  1  0
 20  6  1  0
 21 15  1  0
 22 11  1  0
M  END
$$$$

     RDKit          3D

 23 24  0  0  0  0  0  0  0  0999 V2000
   36.4960   30.2160   29.7220 C   0  0  0  0  0  0  0  0  0  0  0  0
   39.5570   34.0990   27.9150 O   0  0  0  0  0  0  0  0  0  0  0  0
   42.3010   38.4560   29.0240 C   0  0  0  0  0  0  0  0  0  0  0  0
   39.2710   34.2610   29.0780 C   0  0  0  0  0  0  0  0  0  0  0  0
   35.6530   28.0680   30.8300 N   0  0  0  0  0  0  0  0  0  0  0  0
   35.7570   29.3450   30.6240 C   0  0  0  0  0  0  0  0  0  0  0  0
   36.7050   33.7660   31.3140 C   0  0  0  0  0  0  0  0  0  0  0  0
   35.9760   31.6360   31.3820 C   0  0  0  0  0  0  0  0  0  0  0  0
   35.4740   30.3750   31.5110 C   0  0  0  0  0  0  0  0  0  0  0  0
   36.8200   31.6950   30.3020 C   0  0  0  0  0  0  0  0  0  0  0  0
   35.0140   30.4280   32.4420 C   0  0  0  0  0  0  0  0  0  0  0  0
   42.9580   40.4000   27.5820 C   0  0  0  0  0  0  0  0  0  0  0  0
   35.7400   32.9340   31.8880 C   0  0  0  0  0  0  0  0  0  0  0  0
   40.5060   36.4380   29.0730 C   0  0  0  0  0  0  0  0  0  0  0  0
   41.5890   35.6580   28.5570 O   0  0  0  0  0  0  0  0  0  0  0  0
   43.9640   43.9600   28.5840 C   0  0  0  0  0  0  0  0  0  0  0  0
   42.7300   39.2020   28.1530 N   0  0  0  0  0  0  0  0  0  0  0  0
   42.9490   41.6770   28.3830 C   0  0  0  0  0  0  0  0  0  0  0  0
   41.1120   37.7870   29.6530 C   0  0  0  0  0  0  0  0  0  0  0  0
   38.7810   33.2830   30.0190 C   0  0  0  0  0  0  0  0  0  0  0  0
   37.4910   32.9740   30.4690 C   0  0  0  0  0  0  0  0  0  0  0  0
   43.8920   42.7000   27.7410 C   0  0  0  0  0  0  0  0  0  0  0  0
   39.4230   35.6120   29.5500 O   0  0  0  0  0  0  0  0  0  0  0  0
  1 10  2  0
  1  6  1  0
  2  4  2  0
  3 19  1  0
  4 23  1  0
  4 20  1  0
  6  5  2  0
  6  9  1  0
  7 13  1  0
  8  9  2  0
  8 13  1  0
  9 11  1  0
 10 21  1  0
 10  8  1  0
 12 17  1  0
 12 18  1  0
 14 23  1  0
 14 19  1  0
 15 14  2  0
 17  3  1  0
 21 20  1  0
 21  7  1  0
 22 18  1  0
 22 16  1  0
M  END
$$$$

     RDKit          3D

  8  8  0  0  0  0  0  0  0  0999 V2000
   38.6990   35.4920   28.6910 C   0  0  0  0  0  0  0  0  0  0  0  0
   35.3850   31.9170   29.7500 N   0  0  0  0  0  0  0  0  0  0  0  0
   37.5060   33.2160   29.7110 C   0  0  0  0  0  0  0  0  0  0  0  0
   37.3810   35.5770   29.1030 C   0  0  0  0  0  0  0  0  0  0  0  0
   39.3850   34.2890   28.6930 C   0  0  0  0  0  0  0  0  0  0  0  0
   36.8080   34.4180   29.5460 C   0  0  0  0  0  0  0  0  0  0  0  0
   36.7520   32.0170   30.1870 C   0  0  0  0  0  0  0  0  0  0  0  0
   38.8050   33.1470   29.2100 C   0  0  0  0  0  0  0  0  0  0  0  0
  1  5  2  0
  1  4  1  0
  2  7  1  0
  3  7  1  0
  4  6  2  0
  5  8  1  0
  6  3  1  0
  8  3  2  0
M  END
$$$$

     RDKit          3D

 14 15  0  0  0  0  0  0  0  0999 V2000
   37.3640   34.6040   29.6110 C   0  0  0  0  0  0  0  0  0  0  0  0
   41.6200   35.7730   29.7010 C   0  0  0  0  0  0  0  0  0  0  0  0
   36.7010   34.0580   33.3220 C   0  0  0  0  0  0  0  0  0  0  0  0
   40.4190   34.8780   27.4200 C   0  0  0  0  0  0  0  0  0  0  0  0
   43.5450   36.5570   28.2920 C   0  0  0  0  0  0  0  0  0  0  0  0
   40.2390   35.2610   29.8350 C   0  0  0  0  0  0  0  0  0  0  0  0
   41.6550   35.2830   27.3330 C   0  0  0  0  0  0  0  0  0  0  0  0
   37.8560   34.5270   30.9990 C   0  0  0  0  0  0  0  0  0  0  0  0
   39.6640   35.1110   28.6970 C   0  0  0  0  0  0  0  0  0  0  0  0
   39.3480   34.9920   31.0390 C   0  0  0  0  0  0  0  0  0  0  0  0
   36.8590   33.8670   32.0440 C   0  0  0  0  0  0  0  0  0  0  0  0
   42.2630   35.8650   28.5060 C   0  0  0  0  0  0  0  0  0  0  0  0
   38.1600   34.8120   28.5490 C   0  0  0  0  0  0  0  0  0  0  0  0
   35.5570   33.2250   33.8870 C   0  0  0  0  0  0  0  0  0  0  0  0
  1  8  1  0
  2  6  1  0
  3 14  1  0
  4  9  1  0
  5 12  1  0
  6 10  1  0
  7  4  2  0
  7 12  1  0
  8 10  2  0
  8 11  1  0
  9  6  2  0
 11  3  1  0
 12  2  2  0
 13  9  1  0
 13  1  2  0
M  END
$$$$

     RDKit          3D

  8  7  0  0  0  0  0  0  0  0999 V2000
   37.1980   30.9530   29.0510 C   0  0  0  0  0  0  0  0  0  0  0  0
   40.2380   34.7780   26.6100 N   0  0  0  0  0  0  0  0  0  0  0  0
   35.2490   29.7330   29.3280 O   0  0  0  0  0  0  0  0  0  0  0  0
   38.8230   33.2970   27.9250 C   0  0  0  0  0  0  0  0  0  0  0  0
   39.5080   32.2350   28.7880 C   0  0  0  0  0  0  0  0  0  0  0  0
   36.5780   29.5830   28.7210 C   0  0  0  0  0  0  0  0  0  0  0  0
   39.6430   34.5660   27.9230 C   0  0  0  0  0  0  0  0  0  0  0  0
   38.7380   30.9370   29.0760 C   0  0  0  0  0  0  0  0  0  0  0  0
  1  8  1  0
  2  7  1  0
  4  5  1  0
  5  8  1  0
  6  1  1  0
  6  3  1  0
  7  4  1  0
M  END
$$$$

     RDKit          3D

 13 13  0  0  0  0  0  0  0  0999 V2000
   36.4450   34.6690   30.0620 C   0  0  0  0  0  0  0  0  0  0  0  0
   42.3050   35.4460   27.5920 C   0  0  0  0  0  0  0  0  0  0  0  0
   37.3950   33.7940   30.4710 N   0  0  0  0  0  0  0  0  0  0  0  0
   38.3430   36.9140   26.7370 N   0  0  0  0  0  0  0  0  0  0  0  0
   41.4090   33.1690   26.8000 O   0  0  0  0  0  0  0  0  0  0  0  0
   38.5380   34.1210   29.9280 N   0  0  0  0  0  0  0  0  0  0  0  0
   41.4610   34.5640   26.7650 S   0  0  0  0  0  0  0  0  0  0  0  0
   38.8640   35.8420   27.3110 C   0  0  0  0  0  0  0  0  0  0  0  0
   39.8350   35.1090   26.5430 N   0  0  0  0  0  0  0  0  0  0  0  0
   39.3030   34.4160   29.1980 C   0  0  0  0  0  0  0  0  0  0  0  0
   38.3220   35.2880   28.5990 C   0  0  0  0  0  0  0  0  0  0  0  0
   42.3260   35.1310   25.4920 N   0  0  0  0  0  0  0  0  0  0  0  0
   36.9830   35.4350   29.0730 C   0  0  0  0  0  0  0  0  0  0  0  0
  1  3  1  0
  4  8  2  0
  6  3  1  0
  7  5  1  0
  7  2  1  0
  8 11  1  0
  9  7  1  0
  9  8  1  0
 10  6  1  0
 11 13  2  0
 11 10  1  0
 12  7  1  0
 13  1  1  0
M  END
$$$$

     RDKit          3D

 25 26  0  0  0  0  0  0  0  0999 V2000
   38.0070   33.0010   33.6110 N   0  0  0  0  0  0  0  0  0  0  0  0
   37.8630   34.3800   30.2170 C   0  0  0  0  0  0  0  0  0  0  0  0
   41.0490   34.9340   26.9020 C   0  0  0  0  0  0  0  0  0  0  0  0
   40.2540   32.4160   33.7320 O   0  0  0  0  0  0  0  0  0  0  0  0
   36.5350   34.1650   30.1640 C   0  0  0  0  0  0  0  0  0  0  0  0
   42.8190   36.1410   24.6190 O   0  0  0  0  0  0  0  0  0  0  0  0
   41.1520   34.7410   28.3260 C   0  0  0  0  0  0  0  0  0  0  0  0
   38.4650   34.0440   31.3970 C   0  0  0  0  0  0  0  0  0  0  0  0
   38.0910   30.7150   35.6020 N   0  0  0  0  0  0  0  0  0  0  0  0
   38.9150   31.7390   35.5270 C   0  0  0  0  0  0  0  0  0  0  0  0
   40.7890   35.9180   29.3030 C   0  0  0  0  0  0  0  0  0  0  0  0
   39.2020   37.6420   26.5270 C   0  0  0  0  0  0  0  0  0  0  0  0
   40.4540   35.1510   30.5980 O   0  0  0  0  0  0  0  0  0  0  0  0
   39.1100   32.5020   34.2480 C   0  0  0  0  0  0  0  0  0  0  0  0
   42.0840   34.3070   26.0140 C   0  0  0  0  0  0  0  0  0  0  0  0
   42.3660   34.1670   23.7000 O   0  0  0  0  0  0  0  0  0  0  0  0
   42.2980   34.8670   24.6560 C   0  0  0  0  0  0  0  0  0  0  0  0
   37.6950   33.5120   32.3520 C   0  0  0  0  0  0  0  0  0  0  0  0
   40.3050   37.1940   28.6190 C   0  0  0  0  0  0  0  0  0  0  0  0
   36.1160   33.2510   31.8500 S   0  0  0  0  0  0  0  0  0  0  0  0
   40.5840   36.1860   26.2410 C   0  0  0  0  0  0  0  0  0  0  0  0
   42.1340   36.3190   29.5580 O   0  0  0  0  0  0  0  0  0  0  0  0
   39.2400   32.5100   36.7990 C   0  0  0  0  0  0  0  0  0  0  0  0
   39.9470   34.2380   31.6510 C   0  0  0  0  0  0  0  0  0  0  0  0
   40.3330   37.1330   27.1900 N   0  0  0  0  0  0  0  0  0  0  0  0
  1 14  1  0
  2  8  1  0
  3 15  1  0
  3  7  1  0
  4 14  2  0
  5  2  2  0
  5 20  1  0
  6 17  1  0
  7 11  1  0
  8 24  1  0
  8 18  2  0
 10  9  2  0
 10 23  1  0
 11 22  1  0
 11 13  1  0
 12 25  1  0
 13 24  1  0
 14 10  1  0
 16 17  2  0
 17 15  1  0
 18  1  1  0
 19 11  1  0
 20 18  1  0
 21  3  1  0
 21 25  1  0
 25 19  1  0
M  END
$$$$

     RDKit          3D

 21 22  0  0  0  0  0  0  0  0999 V2000
   40.0550   37.0890   27.4050 C   0  0  0  0  0  0  0  0  0  0  0  0
   35.1890   32.7460   31.6960 C   0  0  0  0  0  0  0  0  0  0  0  0
   36.3800   33.0520   30.8760 C   0  0  0  0  0  0  0  0  0  0  0  0
   43.6180   35.2370   27.8460 C   0  0  0  0  0  0  0  0  0  0  0  0
   42.2540   34.8990   25.9610 O   0  0  0  0  0  0  0  0  0  0  0  0
   37.5620   32.2570   30.7830 N   0  0  0  0  0  0  0  0  0  0  0  0
   35.1770   31.0190   32.3600 S   0  0  0  0  0  0  0  0  0  0  0  0
   39.8250   35.6120   27.0370 C   0  0  0  0  0  0  0  0  0  0  0  0
   37.4810   36.0710   28.0790 C   0  0  0  0  0  0  0  0  0  0  0  0
   42.3010   37.1500   26.6360 C   0  0  0  0  0  0  0  0  0  0  0  0
   43.1590   35.8680   26.5070 C   0  0  0  0  0  0  0  0  0  0  0  0
   39.6450   34.7930   28.3700 N   0  0  0  0  0  0  0  0  0  0  0  0
   44.5060   36.0040   25.7100 C   0  0  0  0  0  0  0  0  0  0  0  0
   38.3510   32.9330   29.9190 C   0  0  0  0  0  0  0  0  0  0  0  0
   37.7410   34.0870   29.4780 C   0  0  0  0  0  0  0  0  0  0  0  0
   36.5560   34.1980   30.1290 N   0  0  0  0  0  0  0  0  0  0  0  0
   38.2660   34.9580   28.6850 N   0  0  0  0  0  0  0  0  0  0  0  0
   40.7410   34.8950   26.0510 C   0  0  0  0  0  0  0  0  0  0  0  0
   37.8750   31.1420   31.6480 C   0  0  0  0  0  0  0  0  0  0  0  0
   34.0910   33.4400   31.8540 C   0  0  0  0  0  0  0  0  0  0  0  0
   41.3800   37.1660   27.8590 C   0  0  0  0  0  0  0  0  0  0  0  0
  1 21  1  0
  2 20  2  0
  2  7  1  0
  3  2  1  0
  5 18  1  0
  5 11  1  0
  6  3  1  0
  6 19  1  0
  8  1  1  0
  8 12  1  0
  9 17  1  0
 10 21  1  0
 11 10  1  0
 11  4  1  0
 12 17  1  0
 13 11  1  0
 14  6  1  0
 15 14  2  0
 15 16  1  0
 16  3  2  0
 17 15  1  0
 18  8  1  0
M  END
$$$$

     RDKit          3D

 14 17  0  0  0  0  0  0  0  0999 V2000
   39.6470   34.7980   28.7260 O   0  0  0  0  0  0  0  0  0  0  0  0
   42.0690   37.5660   29.0070 C   0  0  0  0  0  0  0  0  0  0  0  0
   41.6560   34.7010   26.8330 C   0  0  0  0  0  0  0  0  0  0  0  0
   41.6740   36.1290   27.1320 C   0  0  0  0  0  0  0  0  0  0  0  0
   41.5000   36.4400   29.6530 O   0  0  0  0  0  0  0  0  0  0  0  0
   37.6040   34.0090   31.2230 C   0  0  0  0  0  0  0  0  0  0  0  0
   42.1260   36.7120   25.9030 O   0  0  0  0  0  0  0  0  0  0  0  0
   40.3270   36.6440   27.6590 C   0  0  0  0  0  0  0  0  0  0  0  0
   41.5540   37.4280   27.7700 C   0  0  0  0  0  0  0  0  0  0  0  0
   40.5730   34.0820   26.2410 C   0  0  0  0  0  0  0  0  0  0  0  0
   39.5900   35.2630   30.0920 C   0  0  0  0  0  0  0  0  0  0  0  0
   38.6810   35.0600   31.1200 C   0  0  0  0  0  0  0  0  0  0  0  0
   41.8860   34.2330   25.4400 C   0  0  0  0  0  0  0  0  0  0  0  0
   40.2800   36.0050   29.0190 C   0  0  0  0  0  0  0  0  0  0  0  0
  1 14  1  0
  1 11  1  0
  2  5  1  0
  3  4  1  0
  4  7  1  0
  4  8  1  0
  4  9  1  0
  8  9  1  0
  8 14  1  0
  9  2  1  0
 10  3  1  0
 11 12  1  0
 12  6  1  0
 13 10  1  0
 13  3  1  0
 14  5  1  0
 14 11  1  0
M  END
$$$$

     RDKit          3D

  9  9  0  0  0  0  0  0  0  0999 V2000
   39.8460   33.2940   27.1180 C   0  0  0  0  0  0  0  0  0  0  0  0
   41.7370   35.4200   24.9490 C   0  0  0  0  0  0  0  0  0  0  0  0
   40.2740   35.6410   27.2100 O   0  0  0  0  0  0  0  0  0  0  0  0
   42.0050   36.3840   25.6980 C   0  0  0  0  0  0  0  0  0  0  0  0
   41.4170   37.6250   27.4940 O   0  0  0  0  0  0  0  0  0  0  0  0
   40.2280   32.7590   28.1530 O   0  0  0  0  0  0  0  0  0  0  0  0
   40.5780   34.5350   25.2640 C   0  0  0  0  0  0  0  0  0  0  0  0
   41.0480   36.5100   26.9190 C   0  0  0  0  0  0  0  0  0  0  0  0
   40.3280   34.4730   26.5940 C   0  0  0  0  0  0  0  0  0  0  0  0
  1  6  2  0
  2  7  1  0
  2  4  1  0
  4  8  1  0
  7  9  1  0
  8  3  1  0
  8  5  2  0
  9  1  1  0
  9  3  1  0
M  END
$$$$

     RDKit          3D

 25 26  0  0  0  0  0  0  0  0999 V2000
   40.6090   38.4240   27.2290 N   0  0  0  0  0  0  0  0  0  0  0  0
   40.4810   38.5110   23.8360 O   0  0  0  0  0  0  0  0  0  0  0  0
   35.9240   28.7950   32.9920 S   0  0  0  0  0  0  0  0  0  0  0  0
   40.8900   38.2480   24.9070 N   0  0  0  0  0  0  0  0  0  0  0  0
   40.2410   37.6560   26.0520 C   0  0  0  0  0  0  0  0  0  0  0  0
   34.9820   30.3230   33.1940 C   0  0  0  0  0  0  0  0  0  0  0  0
   36.8110   33.6750   30.2800 C   0  0  0  0  0  0  0  0  0  0  0  0
   39.7810   35.9950   27.6830 C   0  0  0  0  0  0  0  0  0  0  0  0
   38.4560   34.5850   29.0110 C   0  0  0  0  0  0  0  0  0  0  0  0
   37.3230   31.4620   29.3210 O   0  0  0  0  0  0  0  0  0  0  0  0
   36.6280   32.2980   30.2390 C   0  0  0  0  0  0  0  0  0  0  0  0
   42.0620   39.0420   25.3380 C   0  0  0  0  0  0  0  0  0  0  0  0
   35.2830   31.5100   32.2180 N   0  0  0  0  0  0  0  0  0  0  0  0
   35.6070   34.0470   32.6250 S   0  0  0  0  0  0  0  0  0  0  0  0
   36.0090   34.7220   30.9750 C   0  0  0  0  0  0  0  0  0  0  0  0
   35.1280   32.4090   32.1130 C   0  0  0  0  0  0  0  0  0  0  0  0
   40.5450   36.2990   26.5820 C   0  0  0  0  0  0  0  0  0  0  0  0
   40.1630   33.6470   27.3830 C   0  0  0  0  0  0  0  0  0  0  0  0
   40.9760   33.9570   26.3110 C   0  0  0  0  0  0  0  0  0  0  0  0
   33.4360   32.2320   31.5220 S   0  0  0  0  0  0  0  0  0  0  0  0
   39.5140   34.7010   28.0100 C   0  0  0  0  0  0  0  0  0  0  0  0
   41.1210   35.2470   25.8440 C   0  0  0  0  0  0  0  0  0  0  0  0
   35.8240   31.6350   31.1570 C   0  0  0  0  0  0  0  0  0  0  0  0
   37.6150   35.5070   29.3810 O   0  0  0  0  0  0  0  0  0  0  0  0
   38.1190   33.9320   29.7830 N   0  0  0  0  0  0  0  0  0  0  0  0
  2  4  1  0
  3  6  1  0
  4 12  1  0
  4  5  1  0
  5 17  1  0
  5  1  1  0
  7 25  1  0
  7 15  1  0
  8 21  1  0
  9 24  2  0
  9 25  1  0
 11 10  1  0
 11  7  1  0
 11 23  1  0
 13  6  1  0
 15 14  1  0
 16 13  1  0
 16 14  1  0
 17  8  2  0
 18 21  2  0
 19 18  1  0
 20 16  2  0
 21  9  1  0
 22 19  2  0
 22 17  1  0
 23 13  1  0
M  END
$$$$

     RDKit          3D

 18 19  0  0  0  0  0  0  0  0999 V2000
   41.1110   35.7530   29.1140 C   0  0  0  0  0  0  0  0  0  0  0  0
   40.0160   35.3810   30.5880 S   0  0  0  0  0  0  0  0  0  0  0  0
   38.3280   33.7000   29.5870 C   0  0  0  0  0  0  0  0  0  0  0  0
   40.8800   35.9040   26.1240 C   0  0  0  0  0  0  0  0  0  0  0  0
   37.5930   33.1020   31.7870 N   0  0  0  0  0  0  0  0  0  0  0  0
   36.9120   31.8170   31.6890 C   0  0  0  0  0  0  0  0  0  0  0  0
   37.0200   31.6020   33.1730 C   0  0  0  0  0  0  0  0  0  0  0  0
   40.7310   34.6830   26.9270 C   0  0  0  0  0  0  0  0  0  0  0  0
   38.2510   32.1440   33.6820 O   0  0  0  0  0  0  0  0  0  0  0  0
   38.2950   32.7510   34.9450 C   0  0  0  0  0  0  0  0  0  0  0  0
   42.1340   36.1350   26.9090 C   0  0  0  0  0  0  0  0  0  0  0  0
   39.7310   34.0840   29.4410 C   0  0  0  0  0  0  0  0  0  0  0  0
   40.3440   34.7420   28.2360 C   0  0  0  0  0  0  0  0  0  0  0  0
   36.5910   30.3260   33.7920 C   0  0  0  0  0  0  0  0  0  0  0  0
   41.8710   36.6570   28.2140 O   0  0  0  0  0  0  0  0  0  0  0  0
   41.2160   33.5180   26.4210 O   0  0  0  0  0  0  0  0  0  0  0  0
   37.6500   33.9840   30.8280 N   0  0  0  0  0  0  0  0  0  0  0  0
   37.7210   33.3520   28.6190 O   0  0  0  0  0  0  0  0  0  0  0  0
  1 15  1  0
  1  2  1  0
  3 17  1  0
  4 11  1  0
  4  8  1  0
  6  5  1  0
  6  7  1  0
  7  9  1  0
  7 14  1  0
  8 16  1  0
  8 13  1  0
  9 10  1  0
 11 15  1  0
 12  3  1  0
 12  2  1  0
 13  1  1  0
 13 12  1  0
 17  5  1  0
 18  3  2  0
M  END
$$$$

     RDKit          3D

 28 30  0  0  0  0  0  0  0  0999 V2000
   38.5980   35.9870   27.4320 C   0  0  0  0  0  0  0  0  0  0  0  0
   38.9060   33.4100   28.5330 N   0  0  0  0  0  0  0  0  0  0  0  0
   32.8010   35.1690   30.9150 C   0  0  0  0  0  0  0  0  0  0  0  0
   43.2890   35.6630   24.8670 C   0  0  0  0  0  0  0  0  0  0  0  0
   37.6720   36.6540   26.6780 C   0  0  0  0  0  0  0  0  0  0  0  0
   38.2710   35.5340   28.5900 N   0  0  0  0  0  0  0  0  0  0  0  0
   30.3240   35.1700   31.3700 C   0  0  0  0  0  0  0  0  0  0  0  0
   35.9130   34.4930   30.2390 N   0  0  0  0  0  0  0  0  0  0  0  0
   37.9750   34.2630   28.8550 C   0  0  0  0  0  0  0  0  0  0  0  0
   31.3810   33.1130   30.9680 C   0  0  0  0  0  0  0  0  0  0  0  0
   37.4290   31.6530   29.0510 N   0  0  0  0  0  0  0  0  0  0  0  0
   40.9850   36.0830   27.3300 O   0  0  0  0  0  0  0  0  0  0  0  0
   36.0970   35.6670   30.4700 N   0  0  0  0  0  0  0  0  0  0  0  0
   38.5590   35.8540   24.6410 C   0  0  0  0  0  0  0  0  0  0  0  0
   36.7280   33.6710   29.5230 C   0  0  0  0  0  0  0  0  0  0  0  0
   31.4750   35.9760   30.9410 C   0  0  0  0  0  0  0  0  0  0  0  0
   40.9920   35.5300   24.4640 C   0  0  0  0  0  0  0  0  0  0  0  0
   36.3450   32.3770   29.4790 N   0  0  0  0  0  0  0  0  0  0  0  0
   38.6550   32.1500   28.6780 C   0  0  0  0  0  0  0  0  0  0  0  0
   30.3440   33.8070   31.7580 C   0  0  0  0  0  0  0  0  0  0  0  0
   40.6640   34.9910   23.0780 C   0  0  0  0  0  0  0  0  0  0  0  0
   37.4280   36.2480   25.3510 C   0  0  0  0  0  0  0  0  0  0  0  0
   35.0360   33.8080   30.8200 C   0  0  0  0  0  0  0  0  0  0  0  0
   39.7710   35.7070   25.3170 C   0  0  0  0  0  0  0  0  0  0  0  0
   39.8680   35.8820   26.7170 C   0  0  0  0  0  0  0  0  0  0  0  0
   42.1230   34.7180   25.1240 C   0  0  0  0  0  0  0  0  0  0  0  0
   32.6910   33.8410   30.9640 C   0  0  0  0  0  0  0  0  0  0  0  0
   33.9670   33.0150   31.1110 C   0  0  0  0  0  0  0  0  0  0  0  0
  1  6  1  0
  2 19  1  0
  2  9  2  0
  3 16  1  0
  3 27  2  0
  4 26  1  0
  5  1  1  0
  6  9  1  0
  7 20  1  0
  8 13  1  0
  8 23  1  0
  9 15  1  0
 10 20  1  0
 11 18  1  0
 14 24  1  0
 14 22  1  0
 15  8  1  0
 16  7  1  0
 17 21  1  0
 17 26  1  0
 17 24  1  0
 18 15  1  0
 19 11  2  0
 22  5  1  0
 23 28  1  0
 24 25  2  0
 25 12  1  0
 25  1  1  0
 27 10  1  0
 27 28  1  0
M  END
$$$$

     RDKit          3D

  8  7  0  0  0  0  0  0  0  0999 V2000
   38.5020   34.4540   28.9770 C   0  0  0  0  0  0  0  0  0  0  0  0
   40.5790   34.7480   25.8080 C   0  0  0  0  0  0  0  0  0  0  0  0
   40.0570   35.8240   25.3990 O   0  0  0  0  0  0  0  0  0  0  0  0
   40.2040   33.9610   27.1140 C   0  0  0  0  0  0  0  0  0  0  0  0
   38.7870   34.1830   27.5640 C   0  0  0  0  0  0  0  0  0  0  0  0
   40.9690   33.1480   27.5710 O   0  0  0  0  0  0  0  0  0  0  0  0
   41.4280   34.3520   25.0170 O   0  0  0  0  0  0  0  0  0  0  0  0
   36.8150   34.3190   30.3140 S   0  0  0  0  0  0  0  0  0  0  0  0
  1  8  1  0
  2  4  1  0
  3  2  1  0
  4  5  1  0
  4  6  2  0
  5  1  1  0
  7  2  2  0
M  END
$$$$

     RDKit          3D

 20 21  0  0  0  0  0  0  0  0999 V2000
   37.3510   33.6620   30.1390 C   0  0  0  0  0  0  0  0  0  0  0  0
   34.9160   32.2340   34.0900 C   0  0  0  0  0  0  0  0  0  0  0  0
   38.2760   34.7930   29.6790 C   0  0  0  0  0  0  0  0  0  0  0  0
   36.4370   34.1260   31.2600 C   0  0  0  0  0  0  0  0  0  0  0  0
   33.9910   31.3020   33.4790 C   0  0  0  0  0  0  0  0  0  0  0  0
   42.0880   38.4250   27.9530 Cl  0  0  0  0  0  0  0  0  0  0  0  0
   34.1780   31.1500   31.9050 C   0  0  0  0  0  0  0  0  0  0  0  0
   35.4560   33.3430   33.4210 C   0  0  0  0  0  0  0  0  0  0  0  0
   35.1840   33.4700   31.9220 C   0  0  0  0  0  0  0  0  0  0  0  0
   38.2610   35.1120   28.4280 N   0  0  0  0  0  0  0  0  0  0  0  0
   41.2630   36.9380   27.3930 C   0  0  0  0  0  0  0  0  0  0  0  0
   39.8560   34.7600   26.7170 C   0  0  0  0  0  0  0  0  0  0  0  0
   34.9460   32.1380   31.3160 N   0  0  0  0  0  0  0  0  0  0  0  0
   40.8690   35.2030   25.9220 C   0  0  0  0  0  0  0  0  0  0  0  0
   39.4330   35.5130   27.7350 C   0  0  0  0  0  0  0  0  0  0  0  0
   41.6380   36.2450   26.3280 C   0  0  0  0  0  0  0  0  0  0  0  0
   42.8510   36.5630   25.7480 O   0  0  0  0  0  0  0  0  0  0  0  0
   40.9770   34.5270   24.7790 C   0  0  0  0  0  0  0  0  0  0  0  0
   33.5810   30.3590   31.3000 O   0  0  0  0  0  0  0  0  0  0  0  0
   40.0860   36.6110   28.1100 C   0  0  0  0  0  0  0  0  0  0  0  0
  1  4  1  0
  3  1  1  0
  5  2  1  0
  7  5  1  0
  8  2  2  0
  9  4  1  0
  9  8  1  0
 10  3  1  0
 11  6  1  0
 11 20  1  0
 12 15  1  0
 13  7  1  0
 13  9  1  0
 14 16  1  0
 14 12  2  0
 15 20  2  0
 15 10  1  0
 16 11  2  0
 17 16  1  0
 18 14  1  0
 19  7  2  0
M  END
$$$$

     RDKit          3D

 12 11  0  0  0  0  0  0  0  0999 V2000
   43.9100   36.3080   27.0630 O   0  0  0  0  0  0  0  0  0  0  0  0
   39.2240   37.0520   23.6500 O   0  0  0  0  0  0  0  0  0  0  0  0
   41.4270   37.9640   25.0670 C   0  0  0  0  0  0  0  0  0  0  0  0
   42.2350   38.2040   26.4780 C   0  0  0  0  0  0  0  0  0  0  0  0
   40.9750   36.4170   25.2920 C   0  0  0  0  0  0  0  0  0  0  0  0
   41.3260   35.7730   26.2120 C   0  0  0  0  0  0  0  0  0  0  0  0
   40.9030   34.1070   24.3130 C   0  0  0  0  0  0  0  0  0  0  0  0
   39.7730   36.0240   23.6130 C   0  0  0  0  0  0  0  0  0  0  0  0
   40.2500   35.3580   24.8680 N   0  0  0  0  0  0  0  0  0  0  0  0
   43.7660   37.6030   26.2170 S   0  0  0  0  0  0  0  0  0  0  0  0
   39.2010   34.9120   25.8820 C   0  0  0  0  0  0  0  0  0  0  0  0
   44.3790   38.8010   27.4200 O   0  0  0  0  0  0  0  0  0  0  0  0
  3  5  1  0
  3  4  1  0
  5  6  2  0
  7  9  1  0
  8  2  2  0
  8  9  1  0
  9  5  1  0
  9 11  1  0
 10  4  1  0
 10  1  1  0
 10 12  1  0
M  END
$$$$

     RDKit          3D

 34 38  0  0  0  0  0  0  0  0999 V2000
   36.5770   31.4940   34.4180 C   0  0  0  0  0  0  0  0  0  0  0  0
   42.8630   35.0300   28.3270 N   0  0  0  0  0  0  0  0  0  0  0  0
   41.3190   35.1990   26.7860 C   0  0  0  0  0  0  0  0  0  0  0  0
   35.4440   39.5400   22.3200 N   0  0  0  0  0  0  0  0  0  0  0  0
   40.0120   31.0910   37.1420 C   0  0  0  0  0  0  0  0  0  0  0  0
   37.6450   37.4170   24.1120 C   0  0  0  0  0  0  0  0  0  0  0  0
   38.3900   28.5210   34.9160 C   0  0  0  0  0  0  0  0  0  0  0  0
   37.6540   38.2350   22.9290 C   0  0  0  0  0  0  0  0  0  0  0  0
   36.7440   32.3540   33.2060 C   0  0  0  0  0  0  0  0  0  0  0  0
   38.5110   35.0980   29.0050 C   0  0  0  0  0  0  0  0  0  0  0  0
   35.0600   31.0570   34.1000 C   0  0  0  0  0  0  0  0  0  0  0  0
   39.1190   35.8020   25.7050 C   0  0  0  0  0  0  0  0  0  0  0  0
   39.7270   28.8330   37.0100 C   0  0  0  0  0  0  0  0  0  0  0  0
   40.0360   37.7980   24.4730 C   0  0  0  0  0  0  0  0  0  0  0  0
   38.7200   31.4500   33.3830 N   0  0  0  0  0  0  0  0  0  0  0  0
   38.8900   38.7660   22.5340 C   0  0  0  0  0  0  0  0  0  0  0  0
   40.5990   35.4840   25.4950 C   0  0  0  0  0  0  0  0  0  0  0  0
   38.6260   29.8390   35.1590 C   0  0  0  0  0  0  0  0  0  0  0  0
   36.3830   39.0480   23.0890 C   0  0  0  0  0  0  0  0  0  0  0  0
   37.9310   32.2140   32.5680 C   0  0  0  0  0  0  0  0  0  0  0  0
   40.6900   35.1450   27.9860 C   0  0  0  0  0  0  0  0  0  0  0  0
   38.7660   36.8760   24.7190 C   0  0  0  0  0  0  0  0  0  0  0  0
   38.1000   30.9010   34.4210 C   0  0  0  0  0  0  0  0  0  0  0  0
   38.3600   32.2870   31.3760 N   0  0  0  0  0  0  0  0  0  0  0  0
   42.6180   35.0510   27.0750 N   0  0  0  0  0  0  0  0  0  0  0  0
   39.2260   35.0250   28.0570 C   0  0  0  0  0  0  0  0  0  0  0  0
   41.6620   35.1850   28.9500 C   0  0  0  0  0  0  0  0  0  0  0  0
   37.8490   33.9750   29.7810 C   0  0  0  0  0  0  0  0  0  0  0  0
   39.1570   27.7010   35.8590 C   0  0  0  0  0  0  0  0  0  0  0  0
   38.9550   33.3600   30.5980 C   0  0  0  0  0  0  0  0  0  0  0  0
   35.5660   32.9730   32.7060 C   0  0  0  0  0  0  0  0  0  0  0  0
   34.4220   32.3290   33.5430 C   0  0  0  0  0  0  0  0  0  0  0  0
   39.3460   29.9560   36.4420 C   0  0  0  0  0  0  0  0  0  0  0  0
   40.0230   38.6630   23.3690 C   0  0  0  0  0  0  0  0  0  0  0  0
  1 11  1  0
  1 23  1  0
  2 27  1  0
  3 25  1  0
  3 21  2  0
  4 19  2  0
  6 22  1  0
  7 18  2  0
  7 29  1  0
  8 19  1  0
  8  6  1  0
  9 31  1  0
  9  1  1  0
 10 28  1  0
 14 22  1  0
 15 23  1  0
 16  8  1  0
 16 34  2  0
 17 12  1  0
 17  3  1  0
 18 33  1  0
 20  9  1  0
 20 15  2  0
 21 26  1  0
 21 27  1  0
 22 12  1  0
 23 18  1  0
 24 20  1  0
 25  2  2  0
 26 10  1  0
 28 30  1  0
 29 13  1  0
 30 24  1  0
 31 32  1  0
 32 11  1  0
 33 13  2  0
 33  5  1  0
 34 14  1  0
M  END
$$$$

     RDKit          3D

 12 13  0  0  0  0  0  0  0  0999 V2000
   36.7950   30.7320   29.7630 C   0  0  0  0  0  0  0  0  0  0  0  0
   36.3550   34.4400   29.5940 C   0  0  0  0  0  0  0  0  0  0  0  0
   38.3100   33.3600   28.7520 C   0  0  0  0  0  0  0  0  0  0  0  0
   36.5140   32.2130   30.0720 C   0  0  0  0  0  0  0  0  0  0  0  0
   35.2960   33.9830   30.2830 N   0  0  0  0  0  0  0  0  0  0  0  0
   37.1270   33.2920   29.4170 C   0  0  0  0  0  0  0  0  0  0  0  0
   38.7680   34.5990   28.2870 C   0  0  0  0  0  0  0  0  0  0  0  0
   39.0260   32.2090   28.8350 O   0  0  0  0  0  0  0  0  0  0  0  0
   35.4100   32.6900   30.6110 N   0  0  0  0  0  0  0  0  0  0  0  0
   37.9620   35.7310   28.4690 C   0  0  0  0  0  0  0  0  0  0  0  0
   36.7090   35.6920   29.0840 C   0  0  0  0  0  0  0  0  0  0  0  0
   34.1010   34.7900   30.5730 C   0  0  0  0  0  0  0  0  0  0  0  0
  1  4  1  0
  2  5  1  0
  3  8  1  0
  3  6  2  0
  4  9  2  0
  5 12  1  0
  5  9  1  0
  6  2  1  0
  6  4  1  0
  7 10  2  0
  7  3  1  0
 10 11  1  0
 11  2  2  0
M  END
$$$$

     RDKit          3D

 11 10  0  0  0  0  0  0  0  0999 V2000
   42.0340   33.9240   24.3040 C   0  0  0  0  0  0  0  0  0  0  0  0
   39.3160   34.5720   28.2450 C   0  0  0  0  0  0  0  0  0  0  0  0
   41.3610   36.1670   23.5140 C   0  0  0  0  0  0  0  0  0  0  0  0
   38.7430   32.8450   29.9040 C   0  0  0  0  0  0  0  0  0  0  0  0
   41.0070   37.4570   23.8970 O   0  0  0  0  0  0  0  0  0  0  0  0
   40.3630   36.0900   26.5550 C   0  0  0  0  0  0  0  0  0  0  0  0
   40.2320   35.7990   28.0620 C   0  0  0  0  0  0  0  0  0  0  0  0
   39.7060   36.9780   28.6900 O   0  0  0  0  0  0  0  0  0  0  0  0
   41.6880   35.7430   25.9880 C   0  0  0  0  0  0  0  0  0  0  0  0
   41.6150   35.2190   24.5650 C   0  0  0  0  0  0  0  0  0  0  0  0
   38.8460   34.3410   29.6690 C   0  0  0  0  0  0  0  0  0  0  0  0
  1 10  1  0
  2 11  1  0
  3  5  1  0
  3 10  2  3
  6  7  1  0
  7  2  1  0
  7  8  1  0
  9  6  1  0
 10  9  1  0
 11  4  1  0
M  END
$$$$

     RDKit          3D

 23 25  0  0  0  0  0  0  0  0999 V2000
   36.3460   34.1000   29.1160 C   0  0  0  0  0  0  0  0  0  0  0  0
   39.2400   37.1270   26.3400 C   0  0  0  0  0  0  0  0  0  0  0  0
   38.6240   38.1950   26.2560 O   0  0  0  0  0  0  0  0  0  0  0  0
   37.0280   32.2650   30.1760 C   0  0  0  0  0  0  0  0  0  0  0  0
   37.4290   27.8410   30.1850 C   0  0  0  0  0  0  0  0  0  0  0  0
   39.8080   35.0250   27.6010 C   0  0  0  0  0  0  0  0  0  0  0  0
   36.2320   33.3110   30.3090 O   0  0  0  0  0  0  0  0  0  0  0  0
   38.8720   36.0300   27.2600 N   0  0  0  0  0  0  0  0  0  0  0  0
   36.2410   30.6280   31.9090 O   0  0  0  0  0  0  0  0  0  0  0  0
   37.5520   35.0180   29.2410 C   0  0  0  0  0  0  0  0  0  0  0  0
   40.4660   36.9900   25.6070 C   0  0  0  0  0  0  0  0  0  0  0  0
   41.5380   35.0670   24.5380 C   0  0  0  0  0  0  0  0  0  0  0  0
   41.0190   34.8070   26.9340 C   0  0  0  0  0  0  0  0  0  0  0  0
   37.3100   30.2370   30.0820 N   0  0  0  0  0  0  0  0  0  0  0  0
   37.7730   36.0260   28.0900 C   0  0  0  0  0  0  0  0  0  0  0  0
   37.9030   32.0880   29.1030 C   0  0  0  0  0  0  0  0  0  0  0  0
   38.1530   27.7590   28.9130 C   0  0  0  0  0  0  0  0  0  0  0  0
   37.0970   36.2960   28.9800 O   0  0  0  0  0  0  0  0  0  0  0  0
   37.9040   30.7420   28.9540 C   0  0  0  0  0  0  0  0  0  0  0  0
   41.3430   35.7980   25.8430 C   0  0  0  0  0  0  0  0  0  0  0  0
   41.1630   38.2020   25.5370 O   0  0  0  0  0  0  0  0  0  0  0  0
   36.7890   31.0170   30.9100 C   0  0  0  0  0  0  0  0  0  0  0  0
   37.3770   29.1970   30.5940 N   0  0  0  0  0  0  0  0  0  0  0  0
  1  7  1  0
  2  8  1  0
  3  2  2  0
  4  7  1  0
  4 22  1  0
  5 23  1  0
  8  6  1  0
 10  1  1  0
 11 21  1  0
 11 20  1  0
 11  2  1  0
 13  6  2  0
 14 23  1  0
 14 22  1  0
 15  8  1  0
 15 18  1  0
 15 10  1  0
 16  4  1  0
 17  5  1  0
 18 10  1  0
 19 16  1  0
 19 14  1  0
 20 12  1  0
 20 13  1  0
 22  9  2  0
M  END
$$$$
