
     RDKit          3D

  9 10  0  0  0  0  0  0  0  0999 V2000
   41.8620   37.1180   31.6290 C   0  0  0  0  0  0  0  0  0  0  0  0
   42.4520   38.3260   32.4600 O   0  0  0  0  0  0  0  0  0  0  0  0
   42.7040   34.6980   31.8290 O   0  0  0  0  0  0  0  0  0  0  0  0
   43.7280   37.9130   32.9580 N   0  0  0  0  0  0  0  0  0  0  0  0
   44.2150   38.4340   34.2000 C   0  0  0  0  0  0  0  0  0  0  0  0
   44.9650   38.7280   32.9220 C   0  0  0  0  0  0  0  0  0  0  0  0
   43.9760   36.5780   32.3550 C   0  0  0  0  0  0  0  0  0  0  0  0
   40.5060   36.5380   32.0120 O   0  0  0  0  0  0  0  0  0  0  0  0
   42.5920   35.9910   32.2010 C   0  0  0  0  0  0  0  0  0  0  0  0
  1  8  1  0
  1  9  1  0
  1  2  1  0
  2  4  1  0
  4  5  1  0
  6  4  1  0
  6  5  1  0
  7  4  1  0
  9  3  1  0
  9  7  1  0
M  END
$$$$

     RDKit          3D

 10  9  0  0  0  0  0  0  0  0999 V2000
   39.7640   34.1790   35.4580 C   0  0  0  0  0  0  0  0  0  0  0  0
   36.2780   32.6000   37.3940 C   0  0  0  0  0  0  0  0  0  0  0  0
   37.1510   31.9300   34.6080 O   0  0  0  0  0  0  0  0  0  0  0  0
   39.5470   35.0880   34.2740 C   0  0  0  0  0  0  0  0  0  0  0  0
   38.7950   33.3210   35.1800 O   0  0  0  0  0  0  0  0  0  0  0  0
   40.8510   35.2080   33.4980 C   0  0  0  0  0  0  0  0  0  0  0  0
   38.1630   32.2840   35.5260 C   0  0  0  0  0  0  0  0  0  0  0  0
   38.4870   31.3150   36.6200 C   0  0  0  0  0  0  0  0  0  0  0  0
   37.2090   30.9820   37.5120 S   0  0  0  0  0  0  0  0  0  0  0  0
   38.9420   36.2930   34.7450 O   0  0  0  0  0  0  0  0  0  0  0  0
  2  9  1  0
  3  7  2  0
  4  6  1  0
  4 10  1  0
  4  1  1  0
  5  1  1  0
  5  7  1  0
  7  8  1  0
  8  9  1  0
M  END
$$$$

     RDKit          3D

 13 13  0  0  0  0  0  0  0  0999 V2000
   37.8370   34.0530   34.4480 C   0  0  0  0  0  0  0  0  0  0  0  0
   36.9190   33.2350   35.2770 C   0  0  0  0  0  0  0  0  0  0  0  0
   41.5310   33.7620   33.9760 N   0  0  0  0  0  0  0  0  0  0  0  0
   40.2900   34.3460   34.5360 C   0  0  0  0  0  0  0  0  0  0  0  0
   40.1520   36.0820   34.4800 S   0  0  0  0  0  0  0  0  0  0  0  0
   41.2610   36.8250   34.0620 O   0  0  0  0  0  0  0  0  0  0  0  0
   38.7540   32.0020   35.2040 C   0  0  0  0  0  0  0  0  0  0  0  0
   39.3230   36.3840   33.3960 O   0  0  0  0  0  0  0  0  0  0  0  0
   39.1790   32.8020   33.1150 O   0  0  0  0  0  0  0  0  0  0  0  0
   39.3240   36.4380   35.5580 O   0  0  0  0  0  0  0  0  0  0  0  0
   37.3300   31.3020   36.8420 O   0  0  0  0  0  0  0  0  0  0  0  0
   39.1530   33.2990   34.4720 C   0  0  0  0  0  0  0  0  0  0  0  0
   37.5850   32.0270   35.7810 C   0  0  0  0  0  0  0  0  0  0  0  0
  1 12  1  0
  1  2  1  0
  2 13  1  0
  4  3  1  0
  5  4  1  0
  5 10  1  0
  6  5  1  0
  7 13  1  0
  8  5  1  0
 12  9  1  0
 12  4  1  0
 12  7  1  0
 13 11  1  0
M  END
$$$$

     RDKit          3D

 22 24  0  0  0  0  0  0  0  0999 V2000
   36.0580   33.4070   35.0330 C   0  0  0  0  0  0  0  0  0  0  0  0
   44.9610   35.3690   34.3130 C   0  0  0  0  0  0  0  0  0  0  0  0
   38.1630   34.1670   33.9540 N   0  0  0  0  0  0  0  0  0  0  0  0
   43.5830   35.9460   34.0200 C   0  0  0  0  0  0  0  0  0  0  0  0
   33.8960   32.6140   35.9360 C   0  0  0  0  0  0  0  0  0  0  0  0
   35.8940   30.9090   35.3450 C   0  0  0  0  0  0  0  0  0  0  0  0
   35.1250   32.1700   35.1500 C   0  0  0  0  0  0  0  0  0  0  0  0
   35.4780   34.3200   33.9380 C   0  0  0  0  0  0  0  0  0  0  0  0
   43.1170   35.5440   32.6180 C   0  0  0  0  0  0  0  0  0  0  0  0
   43.2300   36.7570   36.6020 C   0  0  0  0  0  0  0  0  0  0  0  0
   42.0040   35.7870   34.5180 C   0  0  0  0  0  0  0  0  0  0  0  0
   42.2250   36.8610   37.5940 N   0  0  0  0  0  0  0  0  0  0  0  0
   39.5790   34.6900   33.9850 C   0  0  0  0  0  0  0  0  0  0  0  0
   41.0440   36.1130   37.0700 S   0  0  0  0  0  0  0  0  0  0  0  0
   39.8660   35.1220   35.1540 N   0  0  0  0  0  0  0  0  0  0  0  0
   44.8310   36.8300   34.0450 C   0  0  0  0  0  0  0  0  0  0  0  0
   41.7000   35.4210   33.2870 C   0  0  0  0  0  0  0  0  0  0  0  0
   37.5250   33.4400   34.9900 C   0  0  0  0  0  0  0  0  0  0  0  0
   38.3260   32.7400   35.8800 N   0  0  0  0  0  0  0  0  0  0  0  0
   40.4550   34.8740   33.0150 N   0  0  0  0  0  0  0  0  0  0  0  0
   36.7410   30.8590   33.9470 O   0  0  0  0  0  0  0  0  0  0  0  0
   41.0260   35.6330   35.4890 C   0  0  0  0  0  0  0  0  0  0  0  0
  1  8  1  0
  1  7  1  0
  3 13  1  0
  3 18  1  0
  4 16  1  0
  4  2  1  0
  4 11  1  0
  7  6  1  0
  7  5  1  0
  9 17  1  0
  9  4  1  0
 10 12  1  0
 11 22  1  0
 13 15  2  0
 14 12  1  0
 15 22  1  0
 16  2  1  0
 17 11  2  0
 18  1  1  0
 18 19  2  0
 20 17  1  0
 20 13  2  0
 21  6  1  0
 22 14  2  3
M  END
$$$$

     RDKit          3D

 16 17  0  0  0  0  0  0  0  0999 V2000
   36.7180   34.9560   34.3950 O   0  0  0  0  0  0  0  0  0  0  0  0
   40.7640   35.3000   36.0590 O   0  0  0  0  0  0  0  0  0  0  0  0
   35.7980   33.9500   34.6280 C   0  0  0  0  0  0  0  0  0  0  0  0
   39.1030   35.4770   34.1500 C   0  0  0  0  0  0  0  0  0  0  0  0
   36.4670   32.7310   34.3770 C   0  0  0  0  0  0  0  0  0  0  0  0
   38.2920   31.2410   34.5280 O   0  0  0  0  0  0  0  0  0  0  0  0
   39.9600   36.4450   33.1830 C   0  0  0  0  0  0  0  0  0  0  0  0
   38.1170   32.9570   34.4460 C   0  0  0  0  0  0  0  0  0  0  0  0
   42.0880   37.6690   33.4170 C   0  0  0  0  0  0  0  0  0  0  0  0
   34.4060   34.2150   34.9420 C   0  0  0  0  0  0  0  0  0  0  0  0
   41.3360   36.5270   33.5760 O   0  0  0  0  0  0  0  0  0  0  0  0
   38.4160   36.4110   34.9310 O   0  0  0  0  0  0  0  0  0  0  0  0
   40.2520   32.3280   36.0110 C   0  0  0  0  0  0  0  0  0  0  0  0
   37.9240   34.5050   33.8760 C   0  0  0  0  0  0  0  0  0  0  0  0
   40.0970   34.6030   34.9350 C   0  0  0  0  0  0  0  0  0  0  0  0
   39.3860   33.2490   35.2080 N   0  0  0  0  0  0  0  0  0  0  0  0
  1  3  1  0
  3 10  1  0
  4 12  1  0
  4 15  1  0
  5  8  1  0
  5  3  1  0
  7 11  1  0
  7  4  1  0
  8  6  1  0
  8 16  1  0
  9 11  1  0
 14  4  1  0
 14  1  1  0
 14  8  1  0
 15 16  1  0
 15  2  1  0
 16 13  1  0
M  END
$$$$

     RDKit          3D

 31 32  0  0  0  0  0  0  0  0999 V2000
   43.9760   35.9230   31.3010 C   0  0  0  0  0  0  0  0  0  0  0  0
   37.4790   30.3680   37.1010 C   0  0  0  0  0  0  0  0  0  0  0  0
   43.4750   40.7050   33.8810 O   0  0  0  0  0  0  0  0  0  0  0  0
   42.8450   38.7620   35.1400 C   0  0  0  0  0  0  0  0  0  0  0  0
   38.1600   33.5370   34.8320 C   0  0  0  0  0  0  0  0  0  0  0  0
   40.3570   34.2540   35.3700 C   0  0  0  0  0  0  0  0  0  0  0  0
   41.3790   34.7640   33.3590 C   0  0  0  0  0  0  0  0  0  0  0  0
   34.2380   29.7520   40.4310 F   0  0  0  0  0  0  0  0  0  0  0  0
   39.6850   32.3250   36.4040 O   0  0  0  0  0  0  0  0  0  0  0  0
   42.8240   36.8610   33.5890 N   0  0  0  0  0  0  0  0  0  0  0  0
   35.4430   31.4340   36.4110 C   0  0  0  0  0  0  0  0  0  0  0  0
   44.1310   39.7630   31.7780 C   0  0  0  0  0  0  0  0  0  0  0  0
   35.3780   29.5650   39.7200 C   0  0  0  0  0  0  0  0  0  0  0  0
   36.8100   29.7260   38.0440 C   0  0  0  0  0  0  0  0  0  0  0  0
   44.9430   35.2220   31.0510 O   0  0  0  0  0  0  0  0  0  0  0  0
   35.5740   30.5130   38.6000 C   0  0  0  0  0  0  0  0  0  0  0  0
   43.1950   39.6300   32.9740 C   0  0  0  0  0  0  0  0  0  0  0  0
   41.7800   34.5620   32.0890 C   0  0  0  0  0  0  0  0  0  0  0  0
   36.3400   29.6080   40.6950 F   0  0  0  0  0  0  0  0  0  0  0  0
   37.3210   32.1740   35.1220 C   0  0  0  0  0  0  0  0  0  0  0  0
   34.7990   31.0450   37.5820 C   0  0  0  0  0  0  0  0  0  0  0  0
   42.7370   35.2520   31.4690 C   0  0  0  0  0  0  0  0  0  0  0  0
   43.9600   37.1630   31.2250 O   0  0  0  0  0  0  0  0  0  0  0  0
   40.2360   34.3440   34.0040 N   0  0  0  0  0  0  0  0  0  0  0  0
   43.2130   38.2850   33.7530 C   0  0  0  0  0  0  0  0  0  0  0  0
   42.0050   35.9880   34.0320 C   0  0  0  0  0  0  0  0  0  0  0  0
   36.9840   34.6080   34.5110 C   0  0  0  0  0  0  0  0  0  0  0  0
   39.3660   33.3140   35.7210 C   0  0  0  0  0  0  0  0  0  0  0  0
   41.4570   38.5990   35.2690 O   0  0  0  0  0  0  0  0  0  0  0  0
   38.9930   33.7690   33.4940 C   0  0  0  0  0  0  0  0  0  0  0  0
   36.7600   31.3350   36.3090 C   0  0  0  0  0  0  0  0  0  0  0  0
  1 22  2  0
  2 14  1  0
  4 29  1  0
  5 27  1  0
  5 20  1  0
  5 28  1  0
  6 28  1  0
  7 18  1  0
  7 24  1  0
  7 26  1  0
 10 25  1  0
 10 26  1  0
 11 21  2  0
 13  8  1  0
 13 19  1  0
 14 16  1  0
 15  1  2  0
 16 13  1  0
 17 12  1  0
 17 25  1  0
 17  3  1  0
 20 31  1  0
 21 16  1  0
 22 18  2  0
 23  1  1  0
 24  6  1  0
 25  4  1  0
 28  9  2  0
 30 24  1  0
 30  5  1  0
 31 11  1  0
 31  2  2  0
M  END
$$$$

     RDKit          3D

 21 23  0  0  0  0  0  0  0  0999 V2000
   41.9820   38.0560   34.1700 C   0  0  0  0  0  0  0  0  0  0  0  0
   40.7690   35.2630   33.6300 C   0  0  0  0  0  0  0  0  0  0  0  0
   36.7170   29.1970   35.3620 C   0  0  0  0  0  0  0  0  0  0  0  0
   43.2860   38.6470   34.9280 C   0  0  0  0  0  0  0  0  0  0  0  0
   45.5160   37.0660   34.4810 C   0  0  0  0  0  0  0  0  0  0  0  0
   39.7220   34.4530   33.2740 C   0  0  0  0  0  0  0  0  0  0  0  0
   40.9400   35.7090   34.9180 C   0  0  0  0  0  0  0  0  0  0  0  0
   39.3310   34.0460   35.5950 C   0  0  0  0  0  0  0  0  0  0  0  0
   36.9680   30.1960   34.2100 C   0  0  0  0  0  0  0  0  0  0  0  0
   37.8390   32.7390   34.2010 C   0  0  0  0  0  0  0  0  0  0  0  0
   44.1420   37.4050   34.7550 N   0  0  0  0  0  0  0  0  0  0  0  0
   43.4650   35.1830   34.5010 O   0  0  0  0  0  0  0  0  0  0  0  0
   40.1050   35.0170   35.8820 C   0  0  0  0  0  0  0  0  0  0  0  0
   37.6930   31.3850   34.8430 C   0  0  0  0  0  0  0  0  0  0  0  0
   38.9950   33.8480   34.2670 C   0  0  0  0  0  0  0  0  0  0  0  0
   43.1880   36.3130   34.9780 C   0  0  0  0  0  0  0  0  0  0  0  0
   41.8600   36.7920   35.0190 N   0  0  0  0  0  0  0  0  0  0  0  0
   37.0260   31.4140   36.3300 C   0  0  0  0  0  0  0  0  0  0  0  0
   37.3610   33.0770   32.8450 N   0  0  0  0  0  0  0  0  0  0  0  0
   37.1880   29.9230   36.5900 N   0  0  0  0  0  0  0  0  0  0  0  0
   35.2130   28.9030   35.5490 C   0  0  0  0  0  0  0  0  0  0  0  0
  1  4  1  0
  1 17  1  0
  2  7  1  0
  3 21  1  0
  3 20  1  0
  5 11  1  0
  6  2  2  0
  6 15  1  0
  7 17  1  0
  7 13  2  0
  8 13  1  0
  9 14  1  0
  9  3  1  0
 10 19  1  0
 10 15  1  0
 11  4  1  0
 11 16  1  0
 12 16  2  0
 14 10  1  0
 14 18  1  0
 15  8  2  0
 16 17  1  0
 18 20  1  0
M  END
$$$$

     RDKit          3D

 13 14  0  0  0  0  0  0  0  0999 V2000
   36.4720   31.9250   36.1640 C   0  0  0  0  0  0  0  0  0  0  0  0
   35.2970   31.2230   36.4140 N   0  0  0  0  0  0  0  0  0  0  0  0
   39.7330   34.3680   35.1280 C   0  0  0  0  0  0  0  0  0  0  0  0
   40.7130   35.7880   33.4690 C   0  0  0  0  0  0  0  0  0  0  0  0
   41.6540   36.1360   34.3690 N   0  0  0  0  0  0  0  0  0  0  0  0
   37.4420   33.5250   34.7220 C   0  0  0  0  0  0  0  0  0  0  0  0
   38.5550   33.5160   35.5300 C   0  0  0  0  0  0  0  0  0  0  0  0
   40.6730   34.5290   35.8630 C   0  0  0  0  0  0  0  0  0  0  0  0
   39.7510   34.8620   33.7810 C   0  0  0  0  0  0  0  0  0  0  0  0
   36.4350   32.5800   35.0110 C   0  0  0  0  0  0  0  0  0  0  0  0
   38.5710   32.8220   36.6980 C   0  0  0  0  0  0  0  0  0  0  0  0
   41.7630   35.4540   35.5210 C   0  0  0  0  0  0  0  0  0  0  0  0
   37.5110   32.0320   37.0740 C   0  0  0  0  0  0  0  0  0  0  0  0
  1  2  1  0
  1 13  1  0
  3  7  1  0
  3  8  1  0
  4  9  1  0
  4  5  2  0
  5 12  1  0
  6 10  1  0
  6  7  2  0
  7 11  1  0
  9  3  2  0
 10  1  2  0
 11 13  2  0
 12  8  2  0
M  END
$$$$

     RDKit          3D

 11 11  0  0  0  0  0  0  0  0999 V2000
   43.4320   35.9660   32.8280 Cl  0  0  0  0  0  0  0  0  0  0  0  0
   38.3580   33.1600   36.3730 S   0  0  0  0  0  0  0  0  0  0  0  0
   41.9730   35.2880   33.4860 C   0  0  0  0  0  0  0  0  0  0  0  0
   36.9030   32.3720   36.9670 C   0  0  0  0  0  0  0  0  0  0  0  0
   40.0380   33.5160   35.9650 C   0  0  0  0  0  0  0  0  0  0  0  0
   41.8560   34.7580   34.7070 C   0  0  0  0  0  0  0  0  0  0  0  0
   38.1710   34.0860   37.5360 O   0  0  0  0  0  0  0  0  0  0  0  0
   40.6030   34.2200   34.7700 C   0  0  0  0  0  0  0  0  0  0  0  0
   40.8370   35.2860   32.9570 C   0  0  0  0  0  0  0  0  0  0  0  0
   37.7780   33.9050   35.1960 O   0  0  0  0  0  0  0  0  0  0  0  0
   40.0210   34.5100   33.6520 N   0  0  0  0  0  0  0  0  0  0  0  0
  2  4  1  0
  2  7  2  0
  3  1  1  0
  3  6  1  0
  5  2  1  0
  6  8  1  0
  8  5  2  3
  9  3  1  0
  9 11  1  0
 10  2  2  0
 11  8  1  0
M  END
$$$$

     RDKit          3D

 10  9  0  0  0  0  0  0  0  0999 V2000
   39.6530   34.3450   33.8420 O   0  0  0  0  0  0  0  0  0  0  0  0
   39.1900   35.4520   33.6740 C   0  0  0  0  0  0  0  0  0  0  0  0
   38.0400   35.6980   33.8840 O   0  0  0  0  0  0  0  0  0  0  0  0
   41.8100   35.7820   33.2200 C   0  0  0  0  0  0  0  0  0  0  0  0
   44.1790   37.3700   33.7190 O   0  0  0  0  0  0  0  0  0  0  0  0
   42.7820   36.3340   32.7280 C   0  0  0  0  0  0  0  0  0  0  0  0
   44.5180   35.4350   32.1110 O   0  0  0  0  0  0  0  0  0  0  0  0
   44.1210   36.6980   32.5600 C   0  0  0  0  0  0  0  0  0  0  0  0
   44.9510   37.3770   31.9830 F   0  0  0  0  0  0  0  0  0  0  0  0
   40.4210   36.5730   33.2240 C   0  0  0  0  0  0  0  0  0  0  0  0
  2  1  2  0
  2  3  1  0
  4 10  1  0
  6  4  1  0
  7  8  1  0
  8  6  1  0
  8  5  1  0
  9  8  1  0
 10  2  1  0
M  END
$$$$

     RDKit          3D

 12 11  0  0  0  0  0  0  0  0999 V2000
   36.9730   28.0480   34.2400 C   0  0  0  0  0  0  0  0  0  0  0  0
   37.8730   30.2400   34.4540 C   0  0  0  0  0  0  0  0  0  0  0  0
   41.6660   33.1530   35.1160 O   0  0  0  0  0  0  0  0  0  0  0  0
   39.2590   32.0810   35.4700 C   0  0  0  0  0  0  0  0  0  0  0  0
   38.4870   34.3300   34.6700 N   0  0  0  0  0  0  0  0  0  0  0  0
   39.2860   33.5540   35.4560 C   0  0  0  0  0  0  0  0  0  0  0  0
   36.9860   31.9290   35.7610 O   0  0  0  0  0  0  0  0  0  0  0  0
   35.8890   27.7070   34.0860 O   0  0  0  0  0  0  0  0  0  0  0  0
   40.7830   33.9830   35.3390 C   0  0  0  0  0  0  0  0  0  0  0  0
   37.9910   31.5660   34.7630 C   0  0  0  0  0  0  0  0  0  0  0  0
   36.8200   29.3510   34.9620 C   0  0  0  0  0  0  0  0  0  0  0  0
   41.0360   35.0590   35.9560 O   0  0  0  0  0  0  0  0  0  0  0  0
  1 11  1  0
  2 10  1  0
  2 11  1  0
  3  9  2  0
  6  5  1  0
  6  4  1  0
  8  1  1  0
  9  6  1  0
  9 12  1  0
 10  4  1  0
 10  7  1  0
M  END
$$$$

     RDKit          3D

 29 31  0  0  0  0  0  0  0  0999 V2000
   43.1830   37.4220   32.5350 N   0  0  0  0  0  0  0  0  0  0  0  0
   44.8480   41.1020   33.0640 O   0  0  0  0  0  0  0  0  0  0  0  0
   34.1950   31.7480   35.8240 C   0  0  0  0  0  0  0  0  0  0  0  0
   31.4860   34.5750   35.6370 C   0  0  0  0  0  0  0  0  0  0  0  0
   45.9870   37.6160   32.4000 N   0  0  0  0  0  0  0  0  0  0  0  0
   31.8320   32.9370   35.9950 C   0  0  0  0  0  0  0  0  0  0  0  0
   38.4420   33.6640   34.1800 C   0  0  0  0  0  0  0  0  0  0  0  0
   32.9480   31.4730   36.1470 C   0  0  0  0  0  0  0  0  0  0  0  0
   30.5540   36.4330   36.7550 C   0  0  0  0  0  0  0  0  0  0  0  0
   30.9440   35.0250   36.9990 O   0  0  0  0  0  0  0  0  0  0  0  0
   39.2560   33.8370   32.9220 C   0  0  0  0  0  0  0  0  0  0  0  0
   47.7730   37.1560   30.9270 C   0  0  0  0  0  0  0  0  0  0  0  0
   34.8990   32.9620   35.1810 C   0  0  0  0  0  0  0  0  0  0  0  0
   36.2460   34.8780   34.5500 O   0  0  0  0  0  0  0  0  0  0  0  0
   45.6610   40.1060   32.4500 C   0  0  0  0  0  0  0  0  0  0  0  0
   43.8800   38.5110   31.9190 C   0  0  0  0  0  0  0  0  0  0  0  0
   47.9200   39.2360   32.4940 O   0  0  0  0  0  0  0  0  0  0  0  0
   47.4160   37.8950   32.2140 C   0  0  0  0  0  0  0  0  0  0  0  0
   45.2160   38.6670   32.8770 C   0  0  0  0  0  0  0  0  0  0  0  0
   42.9320   36.1860   31.8940 C   0  0  0  0  0  0  0  0  0  0  0  0
   34.0390   34.0140   35.6650 N   0  0  0  0  0  0  0  0  0  0  0  0
   47.0600   40.1710   33.1230 C   0  0  0  0  0  0  0  0  0  0  0  0
   37.2350   32.7930   33.9770 C   0  0  0  0  0  0  0  0  0  0  0  0
   40.5440   34.3320   33.4550 C   0  0  0  0  0  0  0  0  0  0  0  0
   41.0120   35.5350   33.2400 C   0  0  0  0  0  0  0  0  0  0  0  0
   32.8240   33.9650   35.7520 C   0  0  0  0  0  0  0  0  0  0  0  0
   42.4260   35.2110   32.8940 C   0  0  0  0  0  0  0  0  0  0  0  0
   43.1130   35.7270   30.8280 O   0  0  0  0  0  0  0  0  0  0  0  0
   36.1160   33.6230   34.5500 C   0  0  0  0  0  0  0  0  0  0  0  0
  3  8  1  0
  4 26  1  0
  4  6  1  0
  4 10  1  0
  5 19  1  0
  6  8  1  0
  9 10  1  0
 11 24  1  0
 11  7  1  0
 13 29  1  0
 13 21  1  0
 13  3  1  0
 14 29  2  0
 15 19  1  0
 15  2  1  0
 15 22  1  0
 16  1  1  0
 17 22  1  0
 18 12  1  0
 18  5  1  0
 18 17  1  0
 19 16  1  0
 20  1  1  0
 20 27  1  0
 23  7  1  0
 23 29  1  0
 25 24  1  0
 26 21  1  0
 26  6  1  0
 27 25  1  0
 28 20  2  0
M  END
$$$$

     RDKit          3D

  7  7  0  0  0  0  0  0  0  0999 V2000
   43.5410   35.4800   33.9750 O   0  0  0  0  0  0  0  0  0  0  0  0
   41.0920   37.1680   31.4030 O   0  0  0  0  0  0  0  0  0  0  0  0
   42.0350   36.2380   30.7380 C   0  0  0  0  0  0  0  0  0  0  0  0
   43.2030   35.8950   32.8640 C   0  0  0  0  0  0  0  0  0  0  0  0
   42.1580   35.3650   31.9690 C   0  0  0  0  0  0  0  0  0  0  0  0
   43.9540   36.8160   32.1460 O   0  0  0  0  0  0  0  0  0  0  0  0
   40.8320   36.0490   32.3160 C   0  0  0  0  0  0  0  0  0  0  0  0
  2  7  1  0
  3  2  1  0
  3  5  1  0
  4  1  1  0
  5  7  1  0
  5  4  1  0
  6  4  2  0
M  END
$$$$

     RDKit          3D

 28 30  0  0  0  0  0  0  0  0999 V2000
   39.1060   31.4440   35.3350 C   0  0  0  0  0  0  0  0  0  0  0  0
   37.0090   30.3490   35.2280 N   0  0  0  0  0  0  0  0  0  0  0  0
   43.0300   38.0000   32.3500 C   0  0  0  0  0  0  0  0  0  0  0  0
   46.2350   39.7800   32.7360 N   0  0  0  0  0  0  0  0  0  0  0  0
   42.9730   35.5940   32.1500 C   0  0  0  0  0  0  0  0  0  0  0  0
   44.8380   39.6610   32.8260 C   0  0  0  0  0  0  0  0  0  0  0  0
   37.4470   28.4350   36.1470 N   0  0  0  0  0  0  0  0  0  0  0  0
   40.1450   33.3120   34.2290 C   0  0  0  0  0  0  0  0  0  0  0  0
   33.3650   27.2500   36.8950 C   0  0  0  0  0  0  0  0  0  0  0  0
   44.6950   43.3500   32.8350 C   0  0  0  0  0  0  0  0  0  0  0  0
   40.7150   35.7360   33.3010 C   0  0  0  0  0  0  0  0  0  0  0  0
   32.6570   27.9540   38.0220 C   0  0  0  0  0  0  0  0  0  0  0  0
   38.5660   29.2010   36.2100 C   0  0  0  0  0  0  0  0  0  0  0  0
   44.9580   42.0910   34.7560 O   0  0  0  0  0  0  0  0  0  0  0  0
   39.9960   34.6680   34.0920 C   0  0  0  0  0  0  0  0  0  0  0  0
   35.0110   28.6900   35.6730 C   0  0  0  0  0  0  0  0  0  0  0  0
   36.4110   29.2520   35.8020 C   0  0  0  0  0  0  0  0  0  0  0  0
   43.8480   36.5260   31.6820 C   0  0  0  0  0  0  0  0  0  0  0  0
   38.2770   33.7540   35.2250 C   0  0  0  0  0  0  0  0  0  0  0  0
   44.9540   41.9580   33.3150 C   0  0  0  0  0  0  0  0  0  0  0  0
   38.8600   34.9360   34.7500 C   0  0  0  0  0  0  0  0  0  0  0  0
   34.6640   27.9150   36.8060 N   0  0  0  0  0  0  0  0  0  0  0  0
   44.1060   40.9420   32.7920 C   0  0  0  0  0  0  0  0  0  0  0  0
   45.9470   42.9720   33.3000 O   0  0  0  0  0  0  0  0  0  0  0  0
   41.7680   35.1410   32.4170 C   0  0  0  0  0  0  0  0  0  0  0  0
   39.1340   32.7850   34.9400 C   0  0  0  0  0  0  0  0  0  0  0  0
   44.1030   38.6130   32.9720 N   0  0  0  0  0  0  0  0  0  0  0  0
   38.2280   30.4680   35.8140 C   0  0  0  0  0  0  0  0  0  0  0  0
  2 17  2  0
  2 28  1  0
  3 27  1  0
  4  6  2  0
  5 25  1  0
  6 27  1  0
  7 13  1  0
  8 26  1  0
  9 12  1  0
 10 24  1  0
 10 20  1  0
 11 15  1  0
 15  8  2  0
 15 21  1  0
 16 17  1  0
 16 22  1  0
 17  7  1  0
 18  5  1  0
 18  3  1  0
 20 14  1  0
 21 19  2  0
 22  9  1  0
 23  6  1  0
 23 20  1  0
 24 20  1  0
 25 11  1  0
 26 19  1  0
 26  1  1  0
 28  1  1  0
 28 13  1  0
M  END
$$$$

     RDKit          3D

 10 10  0  0  0  0  0  0  0  0999 V2000
   44.7940   37.5840   31.8850 O   0  0  0  0  0  0  0  0  0  0  0  0
   43.4760   38.5790   33.6780 C   0  0  0  0  0  0  0  0  0  0  0  0
   41.8880   37.0140   31.8900 C   0  0  0  0  0  0  0  0  0  0  0  0
   42.3510   39.1790   32.8260 C   0  0  0  0  0  0  0  0  0  0  0  0
   42.8890   35.0990   33.0210 O   0  0  0  0  0  0  0  0  0  0  0  0
   42.8990   38.1350   34.8770 O   0  0  0  0  0  0  0  0  0  0  0  0
   44.5140   39.4940   34.0680 O   0  0  0  0  0  0  0  0  0  0  0  0
   41.7130   38.3240   31.8920 O   0  0  0  0  0  0  0  0  0  0  0  0
   44.0430   37.3640   32.9850 C   0  0  0  0  0  0  0  0  0  0  0  0
   42.9000   36.4490   32.6500 C   0  0  0  0  0  0  0  0  0  0  0  0
  2  7  1  0
  2  6  1  0
  3  8  1  0
  3 10  1  0
  4  2  1  0
  8  4  1  0
  9  1  1  0
  9  2  1  0
 10  9  1  0
 10  5  1  0
M  END
$$$$

     RDKit          3D

 10 10  0  0  0  0  0  0  0  0999 V2000
   41.4610   36.1340   32.2990 C   0  0  0  0  0  0  0  0  0  0  0  0
   42.1180   37.3110   32.7940 N   0  0  0  0  0  0  0  0  0  0  0  0
   42.0570   34.9010   32.5290 N   0  0  0  0  0  0  0  0  0  0  0  0
   44.1910   36.3860   33.7090 C   0  0  0  0  0  0  0  0  0  0  0  0
   43.4760   37.4930   33.1220 C   0  0  0  0  0  0  0  0  0  0  0  0
   40.1330   36.1140   31.8460 C   0  0  0  0  0  0  0  0  0  0  0  0
   44.1740   38.7190   33.5250 C   0  0  0  0  0  0  0  0  0  0  0  0
   45.5880   38.2390   33.8310 C   0  0  0  0  0  0  0  0  0  0  0  0
   45.7510   36.9020   33.8200 C   0  0  0  0  0  0  0  0  0  0  0  0
   44.3930   35.3420   32.7880 O   0  0  0  0  0  0  0  0  0  0  0  0
  1  3  2  0
  1  2  1  0
  4 10  1  0
  4  9  1  0
  5  2  1  0
  5  7  1  0
  5  4  1  0
  6  1  1  0
  7  8  1  0
  9  8  1  0
M  END
$$$$

     RDKit          3D

 14 14  0  0  0  0  0  0  0  0999 V2000
   35.4940   31.6640   35.2510 C   0  0  0  0  0  0  0  0  0  0  0  0
   40.5980   35.4100   34.8070 N   0  0  0  0  0  0  0  0  0  0  0  0
   42.2610   35.2890   36.5210 N   0  0  0  0  0  0  0  0  0  0  0  0
   39.5030   33.2780   35.1600 C   0  0  0  0  0  0  0  0  0  0  0  0
   39.3710   34.7280   35.0900 C   0  0  0  0  0  0  0  0  0  0  0  0
   43.2300   36.2930   34.1540 O   0  0  0  0  0  0  0  0  0  0  0  0
   38.1400   32.6110   35.2480 C   0  0  0  0  0  0  0  0  0  0  0  0
   37.1770   33.1790   36.0890 C   0  0  0  0  0  0  0  0  0  0  0  0
   36.5600   30.9320   34.6330 C   0  0  0  0  0  0  0  0  0  0  0  0
   35.9350   32.5750   36.1770 C   0  0  0  0  0  0  0  0  0  0  0  0
   44.4630   36.3500   36.1180 O   0  0  0  0  0  0  0  0  0  0  0  0
   43.1820   35.8410   35.5490 C   0  0  0  0  0  0  0  0  0  0  0  0
   37.8130   31.4270   34.6570 N   0  0  0  0  0  0  0  0  0  0  0  0
   41.6530   35.4900   35.6050 C   0  0  0  0  0  0  0  0  0  0  0  0
  1 10  1  0
  2  5  1  0
  2 14  1  0
  4  7  1  0
  5  4  1  0
  6 12  2  0
  7  8  2  0
  8 10  1  0
  9 13  2  0
  9  1  1  0
 12 11  1  0
 12  3  1  0
 13  7  1  0
 14  3  1  0
M  END
$$$$

     RDKit          3D

 11 11  0  0  0  0  0  0  0  0999 V2000
   36.7550   32.5660   35.9760 N   0  0  0  0  0  0  0  0  0  0  0  0
   35.3760   32.3080   36.4280 C   0  0  0  0  0  0  0  0  0  0  0  0
   40.6030   33.7890   33.1070 O   0  0  0  0  0  0  0  0  0  0  0  0
   38.2050   32.7560   34.3430 C   0  0  0  0  0  0  0  0  0  0  0  0
   37.7170   32.9910   36.9940 C   0  0  0  0  0  0  0  0  0  0  0  0
   40.2460   34.3140   34.3750 C   0  0  0  0  0  0  0  0  0  0  0  0
   35.2410   30.8060   36.8030 C   0  0  0  0  0  0  0  0  0  0  0  0
   37.4320   33.9030   33.9740 O   0  0  0  0  0  0  0  0  0  0  0  0
   39.2720   33.4320   35.0830 C   0  0  0  0  0  0  0  0  0  0  0  0
   37.3490   31.6680   34.9450 C   0  0  0  0  0  0  0  0  0  0  0  0
   39.1310   33.2460   36.4140 C   0  0  0  0  0  0  0  0  0  0  0  0
  1  2  1  0
  1  5  1  0
  2  7  1  0
  3  6  1  0
  4  8  1  0
  4 10  1  0
  4  9  1  0
  9  6  1  0
  9 11  1  0
 10  1  1  0
 11  5  1  0
M  END
$$$$

     RDKit          3D

 20 20  0  0  0  0  0  0  0  0999 V2000
   43.5060   40.0890   34.4970 N   0  0  0  0  0  0  0  0  0  0  0  0
   39.7500   34.3920   34.5020 N   0  0  0  0  0  0  0  0  0  0  0  0
   37.3210   34.0550   34.3330 C   0  0  0  0  0  0  0  0  0  0  0  0
   38.5840   34.0070   34.9380 C   0  0  0  0  0  0  0  0  0  0  0  0
   38.7360   33.2320   36.1920 C   0  0  0  0  0  0  0  0  0  0  0  0
   43.7210   35.0220   36.2750 C   0  0  0  0  0  0  0  0  0  0  0  0
   43.4660   36.2930   33.8580 O   0  0  0  0  0  0  0  0  0  0  0  0
   43.7580   38.9190   34.9950 C   0  0  0  0  0  0  0  0  0  0  0  0
   43.1760   35.8900   37.2530 O   0  0  0  0  0  0  0  0  0  0  0  0
   37.8440   32.3000   36.4410 C   0  0  0  0  0  0  0  0  0  0  0  0
   40.5990   35.2100   34.1740 C   0  0  0  0  0  0  0  0  0  0  0  0
   35.9510   31.0010   35.8470 O   0  0  0  0  0  0  0  0  0  0  0  0
   36.7600   32.0640   35.5530 C   0  0  0  0  0  0  0  0  0  0  0  0
   36.4880   32.9400   34.5110 C   0  0  0  0  0  0  0  0  0  0  0  0
   42.5480   36.7290   34.9000 C   0  0  0  0  0  0  0  0  0  0  0  0
   41.6470   35.5990   35.2290 C   0  0  0  0  0  0  0  0  0  0  0  0
   42.8110   37.8950   35.3360 N   0  0  0  0  0  0  0  0  0  0  0  0
   40.3720   35.6530   33.0930 O   0  0  0  0  0  0  0  0  0  0  0  0
   37.0070   35.3630   33.1920 Cl  0  0  0  0  0  0  0  0  0  0  0  0
   42.5710   34.5470   35.5080 O   0  0  0  0  0  0  0  0  0  0  0  0
  1  8  2  0
  2  4  1  0
  3 14  2  0
  3  4  1  0
  4  5  2  0
  5 10  1  0
  6  9  1  0
  7 15  2  0
  8 17  1  0
 11  2  1  0
 13 12  1  0
 13 10  2  0
 14 13  1  0
 15 16  1  0
 15 17  1  0
 16 11  1  0
 16 20  1  0
 18 11  2  0
 19  3  1  0
 20  6  1  0
M  END
$$$$

     RDKit          3D

 19 19  0  0  0  0  0  0  0  0999 V2000
   38.4240   35.7490   34.0670 N   0  0  0  0  0  0  0  0  0  0  0  0
   41.2340   37.9260   33.8010 C   0  0  0  0  0  0  0  0  0  0  0  0
   42.1540   37.0450   33.1040 C   0  0  0  0  0  0  0  0  0  0  0  0
   37.9130   32.5780   35.7070 C   0  0  0  0  0  0  0  0  0  0  0  0
   44.9880   36.3550   32.5950 C   0  0  0  0  0  0  0  0  0  0  0  0
   43.5640   38.9450   32.5720 O   0  0  0  0  0  0  0  0  0  0  0  0
   36.8020   34.2730   33.7390 O   0  0  0  0  0  0  0  0  0  0  0  0
   41.9710   35.6260   33.3370 C   0  0  0  0  0  0  0  0  0  0  0  0
   43.5450   35.8850   30.4550 C   0  0  0  0  0  0  0  0  0  0  0  0
   44.1160   36.8740   31.5630 C   0  0  0  0  0  0  0  0  0  0  0  0
   37.1250   31.9150   34.5830 C   0  0  0  0  0  0  0  0  0  0  0  0
   40.0860   37.3250   34.3540 C   0  0  0  0  0  0  0  0  0  0  0  0
   42.9410   37.7760   32.0450 C   0  0  0  0  0  0  0  0  0  0  0  0
   37.8690   34.4510   34.2250 C   0  0  0  0  0  0  0  0  0  0  0  0
   38.1340   31.4010   36.4830 C   0  0  0  0  0  0  0  0  0  0  0  0
   40.4580   35.0470   33.7340 C   0  0  0  0  0  0  0  0  0  0  0  0
   39.6480   36.0650   34.0720 C   0  0  0  0  0  0  0  0  0  0  0  0
   38.4960   33.7410   35.1320 N   0  0  0  0  0  0  0  0  0  0  0  0
   38.1970   30.3710   37.0990 O   0  0  0  0  0  0  0  0  0  0  0  0
  1 14  1  0
  2 12  2  0
  3 13  1  0
  3  8  1  0
  3  2  1  0
  4 15  2  0
  7 14  2  0
  8 16  1  0
  9 10  1  0
 10 13  1  0
 10  5  1  0
 11  4  1  0
 13  6  1  0
 14 18  1  0
 15 19  2  0
 16 17  1  0
 17  1  1  0
 17 12  1  0
 18  4  1  0
M  END
$$$$
