
     RDKit          3D

 13 13  0  0  0  0  0  0  0  0999 V2000
   36.6820   34.0880   30.8480 C   0  0  0  0  0  0  0  0  0  0  0  0
   36.2940   36.1690   29.7600 C   0  0  0  0  0  0  0  0  0  0  0  0
   33.8620   36.4330   30.1410 O   0  0  0  0  0  0  0  0  0  0  0  0
   38.4010   35.0040   29.2930 C   0  0  0  0  0  0  0  0  0  0  0  0
   39.1670   35.4840   28.0250 C   0  0  0  0  0  0  0  0  0  0  0  0
   39.2520   36.6170   27.7990 O   0  0  0  0  0  0  0  0  0  0  0  0
   40.4700   33.9480   26.6750 O   0  0  0  0  0  0  0  0  0  0  0  0
   39.5170   34.2680   27.1890 C   0  0  0  0  0  0  0  0  0  0  0  0
   36.4950   37.2500   29.3170 O   0  0  0  0  0  0  0  0  0  0  0  0
   35.1090   35.9210   30.2680 N   0  0  0  0  0  0  0  0  0  0  0  0
   37.3400   35.0720   29.8890 C   0  0  0  0  0  0  0  0  0  0  0  0
   37.2090   33.0000   31.3430 N   0  0  0  0  0  0  0  0  0  0  0  0
   35.4080   34.6240   31.3340 C   0  0  0  0  0  0  0  0  0  0  0  0
  1 13  1  0
  1 12  1  0
  2 11  1  0
  2 10  1  0
  3 10  1  0
  4 11  1  0
  5  4  1  0
  6  5  2  0
  7  8  2  0
  8  5  1  0
  9  2  2  0
 10 13  1  0
 11  1  2  0
M  END
$$$$

     RDKit          3D

 14 14  0  0  0  0  0  0  0  0999 V2000
   39.4410   35.9680   27.3060 C   0  0  0  0  0  0  0  0  0  0  0  0
   39.1100   38.5910   27.1110 C   0  0  0  0  0  0  0  0  0  0  0  0
   35.0440   37.3060   28.6380 C   0  0  0  0  0  0  0  0  0  0  0  0
   41.1180   34.2480   26.2790 C   0  0  0  0  0  0  0  0  0  0  0  0
   38.2740   35.8930   28.0810 C   0  0  0  0  0  0  0  0  0  0  0  0
   39.7380   39.5840   28.0260 C   0  0  0  0  0  0  0  0  0  0  0  0
   39.9100   37.3620   26.8030 C   0  0  0  0  0  0  0  0  0  0  0  0
   40.0710   34.7200   27.2500 C   0  0  0  0  0  0  0  0  0  0  0  0
   41.0770   37.4400   26.3880 O   0  0  0  0  0  0  0  0  0  0  0  0
   37.3180   37.0880   28.0130 C   0  0  0  0  0  0  0  0  0  0  0  0
   36.0810   36.4920   28.3850 O   0  0  0  0  0  0  0  0  0  0  0  0
   38.1280   34.4780   28.5790 C   0  0  0  0  0  0  0  0  0  0  0  0
   41.0040   39.9240   27.7750 O   0  0  0  0  0  0  0  0  0  0  0  0
   39.3480   33.7160   28.0780 C   0  0  0  0  0  0  0  0  0  0  0  0
  1  5  1  0
  2  6  1  0
  4  8  1  0
  5 10  1  0
  5 12  1  0
  7  2  1  0
  7  1  1  0
  8  1  2  0
  8 14  1  0
  9  7  2  0
 10 11  1  0
 11  3  1  0
 13  6  1  0
 14 12  2  0
M  END
$$$$

     RDKit          3D

 11 12  0  0  0  0  0  0  0  0999 V2000
   38.0430   32.7490   29.4620 N   0  0  0  0  0  0  0  0  0  0  0  0
   37.5110   33.7850   28.6920 N   0  0  0  0  0  0  0  0  0  0  0  0
   41.1320   36.0980   25.8200 C   0  0  0  0  0  0  0  0  0  0  0  0
   42.6040   35.6980   25.7080 C   0  0  0  0  0  0  0  0  0  0  0  0
   39.4880   32.5320   29.2540 C   0  0  0  0  0  0  0  0  0  0  0  0
   42.3730   34.3210   28.2880 C   0  0  0  0  0  0  0  0  0  0  0  0
   40.8720   34.4410   27.9740 N   0  0  0  0  0  0  0  0  0  0  0  0
   39.0360   35.4850   27.1240 N   0  0  0  0  0  0  0  0  0  0  0  0
   39.8150   33.8310   28.4420 C   0  0  0  0  0  0  0  0  0  0  0  0
   38.5050   34.4920   28.0150 C   0  0  0  0  0  0  0  0  0  0  0  0
   40.4080   35.4830   26.9720 C   0  0  0  0  0  0  0  0  0  0  0  0
  2  1  1  0
  4  3  1  0
  5  1  1  0
  7  6  1  0
  7  9  1  0
  8 10  1  0
  9  5  1  0
 10  9  1  0
 10  2  2  0
 11  3  1  0
 11  8  1  0
 11  7  1  0
M  END
$$$$

     RDKit          3D

 24 25  0  0  0  0  0  0  0  0999 V2000
   34.9260   35.7250   27.4260 C   0  0  0  0  0  0  0  0  0  0  0  0
   36.4690   33.5550   29.7100 C   0  0  0  0  0  0  0  0  0  0  0  0
   40.3220   36.0310   25.7470 C   0  0  0  0  0  0  0  0  0  0  0  0
   41.6440   35.3620   25.4500 C   0  0  0  0  0  0  0  0  0  0  0  0
   34.5790   33.7240   28.6820 N   0  0  0  0  0  0  0  0  0  0  0  0
   37.0200   36.7360   26.7110 C   0  0  0  0  0  0  0  0  0  0  0  0
   36.1180   30.9150   33.4980 N   0  0  0  0  0  0  0  0  0  0  0  0
   37.6110   32.8080   30.4170 C   0  0  0  0  0  0  0  0  0  0  0  0
   35.8790   36.7180   26.9140 C   0  0  0  0  0  0  0  0  0  0  0  0
   37.2170   31.9490   31.6000 C   0  0  0  0  0  0  0  0  0  0  0  0
   38.0690   37.6110   26.4730 C   0  0  0  0  0  0  0  0  0  0  0  0
   36.0810   31.5320   32.2350 C   0  0  0  0  0  0  0  0  0  0  0  0
   41.6800   34.1020   25.7540 F   0  0  0  0  0  0  0  0  0  0  0  0
   40.0270   37.2180   25.0100 C   0  0  0  0  0  0  0  0  0  0  0  0
   35.3770   29.3490   33.2510 C   0  0  0  0  0  0  0  0  0  0  0  0
   35.2580   33.0870   29.6860 C   0  0  0  0  0  0  0  0  0  0  0  0
   35.4800   34.6930   28.3240 N   0  0  0  0  0  0  0  0  0  0  0  0
   40.0700   35.7120   27.0300 O   0  0  0  0  0  0  0  0  0  0  0  0
   36.0310   31.1810   34.6310 C   0  0  0  0  0  0  0  0  0  0  0  0
   38.9750   37.9420   25.8670 C   0  0  0  0  0  0  0  0  0  0  0  0
   36.6720   34.5760   28.9020 C   0  0  0  0  0  0  0  0  0  0  0  0
   34.5570   32.3430   30.5770 C   0  0  0  0  0  0  0  0  0  0  0  0
   42.4150   35.9370   24.7260 O   0  0  0  0  0  0  0  0  0  0  0  0
   34.7100   31.6290   31.7010 C   0  0  0  0  0  0  0  0  0  0  0  0
  1 17  1  0
  2  8  1  0
  3 18  1  0
  4  3  1  0
  4 13  1  0
  5 16  1  0
  6  9  2  3
  7 19  1  0
  8 10  2  0
  9  1  1  0
 10 12  1  0
 11  6  1  0
 12  7  1  0
 14  3  1  0
 14 20  1  0
 15  7  1  0
 16  2  1  0
 16 22  2  0
 17  5  1  0
 17 21  1  0
 20 11  1  0
 21  2  2  0
 22 24  1  0
 23  4  2  0
 24 12  2  0
M  END
$$$$

     RDKit          3D

 22 24  0  0  0  0  0  0  0  0999 V2000
   35.6440   33.6650   30.7470 C   0  0  0  0  0  0  0  0  0  0  0  0
   36.9030   36.2000   28.3290 C   0  0  0  0  0  0  0  0  0  0  0  0
   32.0500   36.5610   30.7830 N   0  0  0  0  0  0  0  0  0  0  0  0
   42.2080   35.2940   26.3920 C   0  0  0  0  0  0  0  0  0  0  0  0
   34.3320   35.5760   30.8240 C   0  0  0  0  0  0  0  0  0  0  0  0
   35.0660   36.1660   29.8830 N   0  0  0  0  0  0  0  0  0  0  0  0
   38.0110   37.9300   27.0540 C   0  0  0  0  0  0  0  0  0  0  0  0
   41.4760   36.6120   26.3250 C   0  0  0  0  0  0  0  0  0  0  0  0
   36.5010   34.2090   29.8240 C   0  0  0  0  0  0  0  0  0  0  0  0
   35.8900   32.2060   30.9960 C   0  0  0  0  0  0  0  0  0  0  0  0
   33.1360   36.1950   31.2550 C   0  0  0  0  0  0  0  0  0  0  0  0
   38.7800   33.1620   28.6290 C   0  0  0  0  0  0  0  0  0  0  0  0
   39.4560   37.9220   26.5730 C   0  0  0  0  0  0  0  0  0  0  0  0
   40.1910   36.7440   26.8170 C   0  0  0  0  0  0  0  0  0  0  0  0
   42.1730   37.7930   25.9360 C   0  0  0  0  0  0  0  0  0  0  0  0
   37.5660   33.1550   29.4770 C   0  0  0  0  0  0  0  0  0  0  0  0
   40.0790   39.0190   25.9650 C   0  0  0  0  0  0  0  0  0  0  0  0
   37.8570   36.8470   28.1820 C   0  0  0  0  0  0  0  0  0  0  0  0
   41.4900   39.0230   25.8130 C   0  0  0  0  0  0  0  0  0  0  0  0
   37.2420   31.9500   30.3150 C   0  0  0  0  0  0  0  0  0  0  0  0
   34.7130   34.3790   31.3860 N   0  0  0  0  0  0  0  0  0  0  0  0
   36.2500   35.5150   29.4030 C   0  0  0  0  0  0  0  0  0  0  0  0
  1 10  1  0
  1 21  1  0
  3 11  2  0
  5 11  1  0
  5 21  1  0
  6  5  2  0
  7 18  1  0
  8  4  1  0
  8 14  1  0
  9  1  2  0
 13 14  2  0
 13  7  1  0
 15  8  2  0
 16 12  1  0
 16  9  1  0
 16 20  1  0
 17 13  1  0
 18  2  1  0
 19 15  1  0
 19 17  2  0
 20 10  1  0
 22  2  1  0
 22  9  1  0
 22  6  1  0
M  END
$$$$

     RDKit          3D

  8  7  0  0  0  0  0  0  0  0999 V2000
   40.1800   36.0070   25.4430 C   0  0  0  0  0  0  0  0  0  0  0  0
   41.0030   37.8480   24.3110 O   0  0  0  0  0  0  0  0  0  0  0  0
   40.7930   36.5760   24.3010 C   0  0  0  0  0  0  0  0  0  0  0  0
   39.1210   36.3020   25.0970 N   0  0  0  0  0  0  0  0  0  0  0  0
   38.2300   37.2250   25.5590 C   0  0  0  0  0  0  0  0  0  0  0  0
   40.3360   34.3250   27.3410 C   0  0  0  0  0  0  0  0  0  0  0  0
   41.5090   35.8190   23.5560 O   0  0  0  0  0  0  0  0  0  0  0  0
   41.0000   35.2060   26.3750 C   0  0  0  0  0  0  0  0  0  0  0  0
  1  8  2  3
  3  2  1  0
  3  1  1  0
  4  1  1  0
  4  5  1  0
  7  3  2  0
  8  6  1  0
M  END
$$$$

     RDKit          3D

 16 17  0  0  0  0  0  0  0  0999 V2000
   39.5690   34.0960   27.7650 N   0  0  0  0  0  0  0  0  0  0  0  0
   39.4310   36.3550   29.6270 C   0  0  0  0  0  0  0  0  0  0  0  0
   39.5980   38.2180   28.3690 O   0  0  0  0  0  0  0  0  0  0  0  0
   40.6060   38.7340   27.5480 C   0  0  0  0  0  0  0  0  0  0  0  0
   37.7390   33.5590   31.2980 C   0  0  0  0  0  0  0  0  0  0  0  0
   39.8980   39.3400   26.3060 N   0  0  0  0  0  0  0  0  0  0  0  0
   37.6790   32.5420   30.3550 C   0  0  0  0  0  0  0  0  0  0  0  0
   38.3110   34.7500   31.1240 N   0  0  0  0  0  0  0  0  0  0  0  0
   39.7840   34.9090   26.8520 C   0  0  0  0  0  0  0  0  0  0  0  0
   38.9330   33.9690   28.9590 C   0  0  0  0  0  0  0  0  0  0  0  0
   39.3330   36.2690   27.0420 C   0  0  0  0  0  0  0  0  0  0  0  0
   37.4540   33.0830   32.5710 F   0  0  0  0  0  0  0  0  0  0  0  0
   39.1410   36.9660   26.0050 O   0  0  0  0  0  0  0  0  0  0  0  0
   38.9540   34.9790   29.9720 C   0  0  0  0  0  0  0  0  0  0  0  0
   38.3680   32.7200   29.1910 C   0  0  0  0  0  0  0  0  0  0  0  0
   39.4860   36.8670   28.2620 N   0  0  0  0  0  0  0  0  0  0  0  0
  1 10  1  0
  2 14  1  0
  4  3  1  0
  5 12  1  0
  6  4  1  0
  7  5  2  0
  8  5  1  0
  9 11  1  0
  9  1  2  0
 10 15  2  0
 10 14  1  0
 11 16  1  0
 13 11  2  0
 14  8  2  0
 15  7  1  0
 16  3  1  0
 16  2  1  0
M  END
$$$$

     RDKit          3D

 21 22  0  0  0  0  0  0  0  0999 V2000
   33.3160   34.6150   29.0860 C   0  0  0  0  0  0  0  0  0  0  0  0
   41.4330   36.2610   27.1880 N   0  0  0  0  0  0  0  0  0  0  0  0
   41.2930   34.6100   26.9030 P   0  0  0  0  0  0  0  0  0  0  0  0
   32.4200   34.2460   28.1330 C   0  0  0  0  0  0  0  0  0  0  0  0
   41.0440   34.3010   25.1890 O   0  0  0  0  0  0  0  0  0  0  0  0
   31.5070   36.0970   29.3560 C   0  0  0  0  0  0  0  0  0  0  0  0
   38.1600   37.0240   28.5830 N   0  0  0  0  0  0  0  0  0  0  0  0
   31.4020   35.3770   28.0340 C   0  0  0  0  0  0  0  0  0  0  0  0
   32.9720   35.9530   29.7060 C   0  0  0  0  0  0  0  0  0  0  0  0
   37.6100   34.4680   28.9420 C   0  0  0  0  0  0  0  0  0  0  0  0
   37.7200   38.2320   28.7490 C   0  0  0  0  0  0  0  0  0  0  0  0
   40.2080   38.4580   27.1050 C   0  0  0  0  0  0  0  0  0  0  0  0
   38.8600   34.7130   28.0320 C   0  0  0  0  0  0  0  0  0  0  0  0
   37.3000   33.0960   28.9880 O   0  0  0  0  0  0  0  0  0  0  0  0
   39.3180   36.1800   28.4040 C   0  0  0  0  0  0  0  0  0  0  0  0
   34.5560   34.0610   29.5990 C   0  0  0  0  0  0  0  0  0  0  0  0
   40.0090   33.9400   27.5480 O   0  0  0  0  0  0  0  0  0  0  0  0
   35.4530   35.0950   29.4070 C   0  0  0  0  0  0  0  0  0  0  0  0
   36.5970   35.3220   28.7980 O   0  0  0  0  0  0  0  0  0  0  0  0
   40.0680   36.8640   27.2010 C   0  0  0  0  0  0  0  0  0  0  0  0
   42.6090   34.1090   27.4830 O   0  0  0  0  0  0  0  0  0  0  0  0
  1 16  1  0
  1  9  1  0
  2 20  1  0
  3  5  2  0
  3  2  1  0
  3 21  1  0
  3 17  1  0
  4  1  1  0
  6  9  1  0
  7 11  2  0
  8  4  1  0
  8  6  1  0
 10 14  1  0
 13 15  1  0
 13 10  1  0
 15  7  1  0
 17 13  1  0
 18 16  1  0
 19 10  1  0
 19 18  1  0
 20 12  1  0
 20 15  1  0
M  END
$$$$

     RDKit          3D

 13 14  0  0  0  0  0  0  0  0999 V2000
   35.9380   33.7770   30.9870 O   0  0  0  0  0  0  0  0  0  0  0  0
   39.8020   33.8140   28.5140 O   0  0  0  0  0  0  0  0  0  0  0  0
   39.4010   36.3650   27.6370 C   0  0  0  0  0  0  0  0  0  0  0  0
   36.9130   37.7780   28.5540 C   0  0  0  0  0  0  0  0  0  0  0  0
   36.3310   35.7440   29.8800 C   0  0  0  0  0  0  0  0  0  0  0  0
   37.9840   38.2990   27.8190 O   0  0  0  0  0  0  0  0  0  0  0  0
   37.1920   36.3360   29.0530 C   0  0  0  0  0  0  0  0  0  0  0  0
   40.6850   36.6340   28.3290 C   0  0  0  0  0  0  0  0  0  0  0  0
   38.6720   34.3650   28.9910 C   0  0  0  0  0  0  0  0  0  0  0  0
   40.5690   36.6510   26.7380 C   0  0  0  0  0  0  0  0  0  0  0  0
   37.7520   33.7680   29.7410 N   0  0  0  0  0  0  0  0  0  0  0  0
   36.6530   34.4240   30.1860 C   0  0  0  0  0  0  0  0  0  0  0  0
   38.4100   35.7010   28.5230 C   0  0  0  0  0  0  0  0  0  0  0  0
  2  9  2  0
  3  8  1  0
  4  7  1  0
  5 12  1  0
  6  4  1  0
  7  5  2  0
  9 11  1  0
 10  3  1  0
 10  8  1  0
 11 12  1  0
 12  1  2  0
 13  3  1  0
 13  9  1  0
 13  7  1  0
M  END
$$$$

     RDKit          3D

  5  4  0  0  0  0  0  0  0  0999 V2000
   37.5410   29.3520   32.1420 N   0  0  0  0  0  0  0  0  0  0  0  0
   38.4890   30.5320   30.1990 C   0  0  0  0  0  0  0  0  0  0  0  0
   38.1870   31.2650   28.9990 C   0  0  0  0  0  0  0  0  0  0  0  0
   37.2410   29.7810   30.8050 C   0  0  0  0  0  0  0  0  0  0  0  0
   37.1260   27.9550   32.2390 C   0  0  0  0  0  0  0  0  0  0  0  0
  1  5  1  0
  2  4  1  0
  3  2  1  0
  4  1  1  0
M  END
$$$$

     RDKit          3D

 10 10  0  0  0  0  0  0  0  0999 V2000
   40.2040   35.6880   28.0470 C   0  0  0  0  0  0  0  0  0  0  0  0
   35.4670   36.4820   27.7730 N   0  0  0  0  0  0  0  0  0  0  0  0
   37.6190   36.2600   27.9700 C   0  0  0  0  0  0  0  0  0  0  0  0
   35.8740   37.5710   28.2650 C   0  0  0  0  0  0  0  0  0  0  0  0
   38.3930   34.0970   28.3410 O   0  0  0  0  0  0  0  0  0  0  0  0
   37.2670   37.5300   28.1950 N   0  0  0  0  0  0  0  0  0  0  0  0
   40.5640   36.8720   28.1530 O   0  0  0  0  0  0  0  0  0  0  0  0
   36.4660   35.5870   27.7990 N   0  0  0  0  0  0  0  0  0  0  0  0
   38.8070   35.3290   27.7120 C   0  0  0  0  0  0  0  0  0  0  0  0
   40.9470   34.6540   28.2920 O   0  0  0  0  0  0  0  0  0  0  0  0
  1  7  2  0
  1 10  1  0
  2  8  1  0
  2  4  1  0
  3  6  2  0
  6  4  1  0
  8  3  1  0
  9  3  1  0
  9  1  1  0
  9  5  1  0
M  END
$$$$

     RDKit          3D

 23 24  0  0  0  0  0  0  0  0999 V2000
   37.4970   30.3640   30.2630 S   0  0  0  0  0  0  0  0  0  0  0  0
   37.1680   32.9520   31.0540 N   0  0  0  0  0  0  0  0  0  0  0  0
   39.1270   36.0960   26.7630 C   0  0  0  0  0  0  0  0  0  0  0  0
   40.2430   33.7310   27.6310 C   0  0  0  0  0  0  0  0  0  0  0  0
   34.6320   31.2230   32.6780 C   0  0  0  0  0  0  0  0  0  0  0  0
   41.1180   38.7250   24.4270 N   0  0  0  0  0  0  0  0  0  0  0  0
   42.2890   37.0810   25.0850 N   0  0  0  0  0  0  0  0  0  0  0  0
   36.6470   31.5820   31.2440 C   0  0  0  0  0  0  0  0  0  0  0  0
   36.6490   34.0390   29.1480 O   0  0  0  0  0  0  0  0  0  0  0  0
   40.5440   35.7020   26.2920 C   0  0  0  0  0  0  0  0  0  0  0  0
   39.4570   34.5770   28.5010 C   0  0  0  0  0  0  0  0  0  0  0  0
   41.0330   34.4400   26.6710 C   0  0  0  0  0  0  0  0  0  0  0  0
   40.6450   39.9650   23.9680 N   0  0  0  0  0  0  0  0  0  0  0  0
   35.3090   31.7620   31.5630 C   0  0  0  0  0  0  0  0  0  0  0  0
   38.8160   35.9530   28.1820 C   0  0  0  0  0  0  0  0  0  0  0  0
   40.9940   36.7560   25.4200 C   0  0  0  0  0  0  0  0  0  0  0  0
   35.0310   30.2340   33.0930 C   0  0  0  0  0  0  0  0  0  0  0  0
   42.2050   38.2590   24.3250 N   0  0  0  0  0  0  0  0  0  0  0  0
   37.5870   33.6450   30.0470 C   0  0  0  0  0  0  0  0  0  0  0  0
   39.0430   34.1470   29.9210 C   0  0  0  0  0  0  0  0  0  0  0  0
   38.7040   38.0780   25.2210 C   0  0  0  0  0  0  0  0  0  0  0  0
   36.4530   29.6880   32.7200 S   0  0  0  0  0  0  0  0  0  0  0  0
   40.2470   37.8800   25.0420 C   0  0  0  0  0  0  0  0  0  0  0  0
  1  8  2  0
  2  8  1  0
  3 15  1  0
  4 11  1  0
  5 17  1  0
  6 23  1  0
  7 16  1  0
  8 14  1  0
  9 19  2  0
 10 12  2  0
 10  3  1  0
 11 20  1  0
 12  4  1  0
 13  6  1  0
 14  5  1  0
 15 11  1  0
 16 10  1  0
 18  6  1  0
 18  7  1  0
 19  2  1  0
 20 19  1  0
 22 17  2  0
 23 21  1  0
 23 16  2  0
M  END
$$$$

     RDKit          3D

  9  9  0  0  0  0  0  0  0  0999 V2000
   42.7020   35.8920   24.9160 N   0  0  0  0  0  0  0  0  0  0  0  0
   38.4410   36.3240   26.0140 C   0  0  0  0  0  0  0  0  0  0  0  0
   39.0810   34.7160   26.2170 S   0  0  0  0  0  0  0  0  0  0  0  0
   37.2260   36.7300   26.2950 N   0  0  0  0  0  0  0  0  0  0  0  0
   40.8130   34.5210   25.6260 C   0  0  0  0  0  0  0  0  0  0  0  0
   39.4170   37.3980   25.8770 C   0  0  0  0  0  0  0  0  0  0  0  0
   40.7380   37.1110   25.3720 N   0  0  0  0  0  0  0  0  0  0  0  0
   40.7660   33.9370   24.2400 O   0  0  0  0  0  0  0  0  0  0  0  0
   41.5510   35.9080   25.4690 C   0  0  0  0  0  0  0  0  0  0  0  0
  1  9  2  0
  2  3  1  0
  2  4  2  0
  5  8  1  0
  5  3  1  0
  6  2  1  0
  7  9  1  0
  7  6  1  0
  9  5  1  0
M  END
$$$$

     RDKit          3D

 14 14  0  0  0  0  0  0  0  0999 V2000
   40.5370   39.3940   27.6760 O   0  0  0  0  0  0  0  0  0  0  0  0
   37.5730   35.6720   29.1990 C   0  0  0  0  0  0  0  0  0  0  0  0
   36.1000   33.4730   30.4080 C   0  0  0  0  0  0  0  0  0  0  0  0
   38.0710   34.3600   29.1940 C   0  0  0  0  0  0  0  0  0  0  0  0
   40.1880   33.3970   28.0520 F   0  0  0  0  0  0  0  0  0  0  0  0
   38.0480   38.7440   28.8280 O   0  0  0  0  0  0  0  0  0  0  0  0
   38.4200   32.1230   30.0230 C   0  0  0  0  0  0  0  0  0  0  0  0
   38.7570   37.8930   28.1500 C   0  0  0  0  0  0  0  0  0  0  0  0
   39.3020   34.3750   28.3900 C   0  0  0  0  0  0  0  0  0  0  0  0
   37.4830   33.2540   29.8280 N   0  0  0  0  0  0  0  0  0  0  0  0
   39.7470   38.3720   27.0950 C   0  0  0  0  0  0  0  0  0  0  0  0
   36.4840   36.2210   29.7130 N   0  0  0  0  0  0  0  0  0  0  0  0
   38.6100   36.4480   28.4240 C   0  0  0  0  0  0  0  0  0  0  0  0
   39.4950   35.5890   27.9330 N   0  0  0  0  0  0  0  0  0  0  0  0
  2 12  1  0
  4  2  1  0
  4 10  1  0
  5  9  1  0
  8 13  1  0
  8  6  1  0
  9  4  1  0
 10  7  1  0
 10  3  1  0
 11  1  1  0
 11  8  1  0
 13  2  2  0
 14  9  2  0
 14 13  1  0
M  END
$$$$

     RDKit          3D

 19 20  0  0  0  0  0  0  0  0999 V2000
   41.1960   36.2340   27.6550 C   0  0  0  0  0  0  0  0  0  0  0  0
   34.8940   34.1620   28.8970 C   0  0  0  0  0  0  0  0  0  0  0  0
   36.7860   32.1720   29.8310 C   0  0  0  0  0  0  0  0  0  0  0  0
   33.7520   35.2790   28.7320 C   0  0  0  0  0  0  0  0  0  0  0  0
   35.4720   32.9630   29.7430 N   0  0  0  0  0  0  0  0  0  0  0  0
   38.1640   36.3630   27.9230 C   0  0  0  0  0  0  0  0  0  0  0  0
   38.4960   35.0540   28.0880 C   0  0  0  0  0  0  0  0  0  0  0  0
   32.3300   33.4090   28.8430 O   0  0  0  0  0  0  0  0  0  0  0  0
   36.6330   30.6490   29.7980 C   0  0  0  0  0  0  0  0  0  0  0  0
   32.3440   34.7750   28.5630 C   0  0  0  0  0  0  0  0  0  0  0  0
   39.6420   34.3750   27.7170 C   0  0  0  0  0  0  0  0  0  0  0  0
   37.4300   34.2670   28.6750 N   0  0  0  0  0  0  0  0  0  0  0  0
   38.2050   32.2600   30.4750 C   0  0  0  0  0  0  0  0  0  0  0  0
   36.4600   36.5010   27.6620 S   0  0  0  0  0  0  0  0  0  0  0  0
   40.3960   37.3730   27.6630 C   0  0  0  0  0  0  0  0  0  0  0  0
   39.0460   37.4800   27.8140 C   0  0  0  0  0  0  0  0  0  0  0  0
   36.1780   34.9660   28.5480 C   0  0  0  0  0  0  0  0  0  0  0  0
   40.8830   34.8810   27.5540 C   0  0  0  0  0  0  0  0  0  0  0  0
   33.8490   36.0530   27.5420 O   0  0  0  0  0  0  0  0  0  0  0  0
  1 15  1  0
  2  5  1  0
  3 13  1  0
  4 19  1  0
  4  2  1  0
  5  3  1  0
  6  7  1  0
  7 12  1  0
  9  3  1  0
 10  4  1  0
 10  8  1  0
 11  7  2  0
 14  6  1  0
 14 17  1  0
 15 16  1  0
 16  6  2  0
 17 12  1  0
 17  2  1  0
 18  1  2  0
 18 11  1  0
M  END
$$$$

     RDKit          3D

  7  6  0  0  0  0  0  0  0  0999 V2000
   40.6820   33.8250   26.3200 C   0  0  0  0  0  0  0  0  0  0  0  0
   39.8270   34.9940   26.1990 C   0  0  0  0  0  0  0  0  0  0  0  0
   40.3800   36.3200   26.5810 C   0  0  0  0  0  0  0  0  0  0  0  0
   40.2870   37.3610   25.6420 O   0  0  0  0  0  0  0  0  0  0  0  0
   38.6970   34.8530   25.8070 O   0  0  0  0  0  0  0  0  0  0  0  0
   40.7960   36.3950   27.7400 N   0  0  0  0  0  0  0  0  0  0  0  0
   39.0830   37.7290   25.0000 N   0  0  0  0  0  0  0  0  0  0  0  0
  2  1  1  0
  2  3  1  0
  3  6  2  0
  4  3  1  0
  5  2  2  0
  7  4  1  0
M  END
$$$$

     RDKit          3D

  7  6  0  0  0  0  0  0  0  0999 V2000
   40.0890   36.6990   26.8540 C   0  0  0  0  0  0  0  0  0  0  0  0
   39.7370   35.4430   25.8240 C   0  0  0  0  0  0  0  0  0  0  0  0
   39.3270   36.1570   24.5720 C   0  0  0  0  0  0  0  0  0  0  0  0
   37.7980   36.7480   24.7850 C   0  0  0  0  0  0  0  0  0  0  0  0
   39.7730   34.5630   26.5070 C   0  0  0  0  0  0  0  0  0  0  0  0
   37.2670   37.0570   23.7500 O   0  0  0  0  0  0  0  0  0  0  0  0
   37.5470   36.8950   25.3910 O   0  0  0  0  0  0  0  0  0  0  0  0
  2  5  2  0
  2  1  1  0
  3  4  1  0
  3  2  1  0
  4  7  1  0
  6  4  2  0
M  END
$$$$

     RDKit          3D

 13 12  0  0  0  0  0  0  0  0999 V2000
   34.5580   33.8700   33.7720 O   0  0  0  0  0  0  0  0  0  0  0  0
   41.0180   37.0590   26.3370 C   0  0  0  0  0  0  0  0  0  0  0  0
   36.1670   34.0920   31.1620 N   0  0  0  0  0  0  0  0  0  0  0  0
   35.7710   32.9820   31.8960 C   0  0  0  0  0  0  0  0  0  0  0  0
   39.0970   34.5610   28.1650 C   0  0  0  0  0  0  0  0  0  0  0  0
   36.0520   35.2040   30.4560 C   0  0  0  0  0  0  0  0  0  0  0  0
   34.0750   31.8360   33.2290 O   0  0  0  0  0  0  0  0  0  0  0  0
   38.0210   34.3260   29.1450 C   0  0  0  0  0  0  0  0  0  0  0  0
   37.0530   35.4980   29.4590 C   0  0  0  0  0  0  0  0  0  0  0  0
   37.9510   33.1550   29.7370 N   0  0  0  0  0  0  0  0  0  0  0  0
   39.1530   35.7620   27.2610 C   0  0  0  0  0  0  0  0  0  0  0  0
   40.5610   35.6560   26.6740 C   0  0  0  0  0  0  0  0  0  0  0  0
   34.6330   32.9960   33.0110 C   0  0  0  0  0  0  0  0  0  0  0  0
  2 12  1  0
  3  4  1  0
  4 13  1  0
  5  8  1  0
  6  3  1  0
  8  9  1  0
  8 10  2  0
  9  6  1  0
 11  5  1  0
 12 11  1  0
 13  7  2  0
 13  1  1  0
M  END
$$$$

     RDKit          3D

 24 26  0  0  0  0  0  0  0  0999 V2000
   37.5960   33.6270   28.6230 C   0  0  0  0  0  0  0  0  0  0  0  0
   39.1450   37.9490   24.4760 N   0  0  0  0  0  0  0  0  0  0  0  0
   36.4530   36.3060   26.4290 O   0  0  0  0  0  0  0  0  0  0  0  0
   39.8690   36.9530   23.6590 C   0  0  0  0  0  0  0  0  0  0  0  0
   37.5780   34.8830   28.0360 C   0  0  0  0  0  0  0  0  0  0  0  0
   37.7000   37.5050   24.5800 C   0  0  0  0  0  0  0  0  0  0  0  0
   35.2610   36.4310   25.7600 C   0  0  0  0  0  0  0  0  0  0  0  0
   41.5750   38.1790   24.6820 C   0  0  0  0  0  0  0  0  0  0  0  0
   37.6200   36.8140   25.8840 N   0  0  0  0  0  0  0  0  0  0  0  0
   38.7510   32.8320   28.6090 C   0  0  0  0  0  0  0  0  0  0  0  0
   36.3450   32.8520   29.2310 C   0  0  0  0  0  0  0  0  0  0  0  0
   40.2020   37.0860   26.4300 C   0  0  0  0  0  0  0  0  0  0  0  0
   39.8080   33.3160   28.0780 N   0  0  0  0  0  0  0  0  0  0  0  0
   40.0020   31.0180   28.9310 O   0  0  0  0  0  0  0  0  0  0  0  0
   38.7490   35.3240   27.4080 C   0  0  0  0  0  0  0  0  0  0  0  0
   39.8530   34.5040   27.4810 C   0  0  0  0  0  0  0  0  0  0  0  0
   37.3660   28.5200   30.6300 N   0  0  0  0  0  0  0  0  0  0  0  0
   38.8970   39.2780   23.9050 C   0  0  0  0  0  0  0  0  0  0  0  0
   38.2090   29.6960   30.7710 C   0  0  0  0  0  0  0  0  0  0  0  0
   38.9130   31.5460   29.1630 C   0  0  0  0  0  0  0  0  0  0  0  0
   40.3140   38.2900   25.5390 C   0  0  0  0  0  0  0  0  0  0  0  0
   37.8350   30.9130   30.0000 C   0  0  0  0  0  0  0  0  0  0  0  0
   38.8030   36.5650   26.5390 C   0  0  0  0  0  0  0  0  0  0  0  0
   36.4880   31.4700   29.8690 C   0  0  0  0  0  0  0  0  0  0  0  0
  1 11  1  0
  2  6  1  0
  2 21  1  0
  4  2  1  0
  5  1  2  0
  6  9  1  0
  7  3  1  0
  9  3  1  0
  9 23  1  0
 10  1  1  0
 10 20  1  0
 11 24  2  0
 12 23  1  0
 13 10  2  0
 14 20  2  0
 15 16  2  0
 15  5  1  0
 16 13  1  0
 17 19  1  0
 18  2  1  0
 20 22  1  0
 21  8  1  0
 21 12  1  0
 22 19  1  0
 23 15  1  0
 24 22  1  0
M  END
$$$$

     RDKit          3D

  9  9  0  0  0  0  0  0  0  0999 V2000
   36.4020   34.2850   27.0750 O   0  0  0  0  0  0  0  0  0  0  0  0
   37.7690   32.9200   28.8510 C   0  0  0  0  0  0  0  0  0  0  0  0
   35.7050   35.4030   26.7290 C   0  0  0  0  0  0  0  0  0  0  0  0
   37.6520   35.3960   28.5690 C   0  0  0  0  0  0  0  0  0  0  0  0
   34.4040   35.3380   26.0380 C   0  0  0  0  0  0  0  0  0  0  0  0
   33.3980   35.5930   25.8530 N   0  0  0  0  0  0  0  0  0  0  0  0
   37.2320   34.1510   28.1680 C   0  0  0  0  0  0  0  0  0  0  0  0
   37.2490   36.5520   27.9540 C   0  0  0  0  0  0  0  0  0  0  0  0
   36.2130   36.5480   27.0590 C   0  0  0  0  0  0  0  0  0  0  0  0
  1  7  1  0
  3  5  1  0
  3  9  1  0
  3  1  1  0
  6  5  3  0
  7  4  2  0
  7  2  1  0
  8  4  1  0
  9  8  2  0
M  END
$$$$
