
     RDKit          3D

 24 25  0  0  0  0  0  0  0  0999 V2000
   39.9620   41.9040   28.3710 C   0  0  0  0  0  0  0  0  0  0  0  0
   31.4940   36.0970   31.4710 C   0  0  0  0  0  0  0  0  0  0  0  0
   35.2560   36.4020   29.6180 C   0  0  0  0  0  0  0  0  0  0  0  0
   40.3520   40.5440   28.8040 C   0  0  0  0  0  0  0  0  0  0  0  0
   29.5130   35.0020   30.8210 C   0  0  0  0  0  0  0  0  0  0  0  0
   30.8440   35.3010   30.5570 C   0  0  0  0  0  0  0  0  0  0  0  0
   28.8830   35.5640   31.9430 C   0  0  0  0  0  0  0  0  0  0  0  0
   38.1950   38.3960   29.6770 C   0  0  0  0  0  0  0  0  0  0  0  0
   33.3710   37.1030   30.5240 C   0  0  0  0  0  0  0  0  0  0  0  0
   33.0100   36.1350   31.5550 C   0  0  0  0  0  0  0  0  0  0  0  0
   41.2500   40.3970   29.6700 O   0  0  0  0  0  0  0  0  0  0  0  0
   30.7660   36.9480   32.2400 C   0  0  0  0  0  0  0  0  0  0  0  0
   36.3690   35.7350   29.1720 C   0  0  0  0  0  0  0  0  0  0  0  0
   39.2240   37.3300   28.0430 N   0  0  0  0  0  0  0  0  0  0  0  0
   34.2730   38.5340   28.8180 C   0  0  0  0  0  0  0  0  0  0  0  0
   37.3870   36.4450   29.0040 N   0  0  0  0  0  0  0  0  0  0  0  0
   34.3940   37.3000   29.7070 C   0  0  0  0  0  0  0  0  0  0  0  0
   38.8580   35.0150   27.9250 N   0  0  0  0  0  0  0  0  0  0  0  0
   40.2590   42.8070   29.6100 C   0  0  0  0  0  0  0  0  0  0  0  0
   39.0980   38.4550   28.6200 C   0  0  0  0  0  0  0  0  0  0  0  0
   29.5350   36.4950   32.6920 C   0  0  0  0  0  0  0  0  0  0  0  0
   39.7620   39.6050   28.2730 C   0  0  0  0  0  0  0  0  0  0  0  0
   37.3660   37.5410   29.4770 C   0  0  0  0  0  0  0  0  0  0  0  0
   38.4580   36.4590   28.3750 C   0  0  0  0  0  0  0  0  0  0  0  0
  1  4  1  0
  1 19  1  0
  2 10  1  0
  2 12  1  0
  3 17  2  0
  4 11  2  0
  5  7  2  0
  6  5  1  0
  6  2  2  0
  7 21  1  0
  9 10  1  0
 12 21  2  0
 13  3  2  0
 14 24  1  0
 14 20  2  0
 15 17  1  0
 16 13  1  0
 16 23  1  0
 17  9  1  0
 20  8  1  0
 22 20  1  0
 22  4  1  0
 23  8  1  0
 24 18  1  0
 24 16  1  0
M  END
$$$$

     RDKit          3D

 28 29  0  0  0  0  0  0  0  0999 V2000
   35.9530   36.5690   31.2200 C   0  0  0  0  0  0  0  0  0  0  0  0
   34.9420   38.1010   29.7690 O   0  0  0  0  0  0  0  0  0  0  0  0
   37.3200   37.9210   29.4960 C   0  0  0  0  0  0  0  0  0  0  0  0
   37.1780   34.5190   36.9870 C   0  0  0  0  0  0  0  0  0  0  0  0
   38.2840   39.2610   27.4900 C   0  0  0  0  0  0  0  0  0  0  0  0
   42.2160   39.9030   26.4480 C   0  0  0  0  0  0  0  0  0  0  0  0
   37.8270   37.4510   23.7700 O   0  0  0  0  0  0  0  0  0  0  0  0
   34.3270   35.0510   34.0220 O   0  0  0  0  0  0  0  0  0  0  0  0
   35.9880   39.1710   27.9370 O   0  0  0  0  0  0  0  0  0  0  0  0
   35.0960   36.5790   32.3460 C   0  0  0  0  0  0  0  0  0  0  0  0
   37.1640   38.7540   28.2840 C   0  0  0  0  0  0  0  0  0  0  0  0
   34.7230   35.9860   35.1150 C   0  0  0  0  0  0  0  0  0  0  0  0
   38.0740   39.0640   26.0550 C   0  0  0  0  0  0  0  0  0  0  0  0
   36.8700   39.2870   25.4730 O   0  0  0  0  0  0  0  0  0  0  0  0
   33.6960   36.6330   32.1960 O   0  0  0  0  0  0  0  0  0  0  0  0
   40.0940   40.0370   25.1610 C   0  0  0  0  0  0  0  0  0  0  0  0
   36.0040   37.6350   30.1650 C   0  0  0  0  0  0  0  0  0  0  0  0
   36.1320   35.6610   36.2220 C   0  0  0  0  0  0  0  0  0  0  0  0
   39.8670   37.4240   27.8890 O   0  0  0  0  0  0  0  0  0  0  0  0
   35.0620   36.3030   33.8470 C   0  0  0  0  0  0  0  0  0  0  0  0
   39.1780   38.8630   25.2330 C   0  0  0  0  0  0  0  0  0  0  0  0
   36.6970   34.9910   35.0940 O   0  0  0  0  0  0  0  0  0  0  0  0
   40.4640   39.7340   28.1270 C   0  0  0  0  0  0  0  0  0  0  0  0
   40.7120   40.2170   26.5980 C   0  0  0  0  0  0  0  0  0  0  0  0
   41.1300   39.7230   23.8490 O   0  0  0  0  0  0  0  0  0  0  0  0
   36.6300   36.9080   36.8030 O   0  0  0  0  0  0  0  0  0  0  0  0
   39.1480   37.7680   24.2300 C   0  0  0  0  0  0  0  0  0  0  0  0
   39.4500   38.6540   28.2170 C   0  0  0  0  0  0  0  0  0  0  0  0
  1 10  1  0
  2 17  2  0
  3 17  1  0
  5 28  1  0
  5 11  1  0
  7 27  1  0
  8 12  1  0
 10 15  1  0
 11  9  1  0
 11  3  1  0
 12 18  1  0
 13 14  1  0
 13  5  1  0
 16 25  1  0
 16 21  1  0
 16 24  1  0
 17  1  1  0
 18 26  1  0
 18  4  1  0
 20 10  1  0
 20  8  1  0
 20 12  1  0
 21 27  1  0
 21 13  1  0
 22 18  1  0
 23 28  1  0
 24  6  1  0
 24 23  1  0
 28 19  1  0
M  END
$$$$

     RDKit          3D

  7  7  0  0  0  0  0  0  0  0999 V2000
   37.1630   38.3980   25.4090 C   0  0  0  0  0  0  0  0  0  0  0  0
   35.7650   39.0720   27.0560 C   0  0  0  0  0  0  0  0  0  0  0  0
   37.9970   40.6390   28.2600 C   0  0  0  0  0  0  0  0  0  0  0  0
   38.1520   39.2730   27.5680 C   0  0  0  0  0  0  0  0  0  0  0  0
   37.0900   39.3770   26.4580 N   0  0  0  0  0  0  0  0  0  0  0  0
   36.7900   39.8250   25.0760 C   0  0  0  0  0  0  0  0  0  0  0  0
   37.2940   42.0560   27.0400 S   0  0  0  0  0  0  0  0  0  0  0  0
  1  5  1  0
  4  3  1  0
  5  2  1  0
  5  4  1  0
  6  1  1  0
  6  5  1  0
  7  3  1  0
M  END
$$$$

     RDKit          3D

 11 11  0  0  0  0  0  0  0  0999 V2000
   36.4730   38.3500   28.9230 C   0  0  0  0  0  0  0  0  0  0  0  0
   39.2410   39.5610   28.3940 N   0  0  0  0  0  0  0  0  0  0  0  0
   36.3550   35.8010   30.1230 C   0  0  0  0  0  0  0  0  0  0  0  0
   35.3890   38.0440   29.7400 C   0  0  0  0  0  0  0  0  0  0  0  0
   37.4510   37.3150   28.5520 C   0  0  0  0  0  0  0  0  0  0  0  0
   35.8220   40.5490   27.5870 O   0  0  0  0  0  0  0  0  0  0  0  0
   36.6860   39.8340   28.3930 C   0  0  0  0  0  0  0  0  0  0  0  0
   35.3210   36.7520   30.2820 C   0  0  0  0  0  0  0  0  0  0  0  0
   33.9050   36.2250   31.1410 Cl  0  0  0  0  0  0  0  0  0  0  0  0
   38.0560   39.8880   27.6070 C   0  0  0  0  0  0  0  0  0  0  0  0
   37.4300   36.0710   29.2290 C   0  0  0  0  0  0  0  0  0  0  0  0
  1  4  1  0
  3  8  1  0
  4  8  2  0
  5  1  2  0
  5 11  1  0
  7  6  1  0
  7  1  1  0
  8  9  1  0
 10  7  1  0
 10  2  1  0
 11  3  2  0
M  END
$$$$

     RDKit          3D

 11 10  0  0  0  0  0  0  0  0999 V2000
   38.1290   37.7050   26.2300 C   0  0  0  0  0  0  0  0  0  0  0  0
   38.6660   39.9830   24.7200 C   0  0  0  0  0  0  0  0  0  0  0  0
   37.0580   39.2720   28.7600 C   0  0  0  0  0  0  0  0  0  0  0  0
   36.2720   37.6870   30.4510 C   0  0  0  0  0  0  0  0  0  0  0  0
   36.8200   35.3660   30.6140 N   0  0  0  0  0  0  0  0  0  0  0  0
   35.7250   36.2460   30.3830 C   0  0  0  0  0  0  0  0  0  0  0  0
   38.4570   38.8260   28.4660 C   0  0  0  0  0  0  0  0  0  0  0  0
   36.7750   40.4660   28.8480 O   0  0  0  0  0  0  0  0  0  0  0  0
   38.8670   38.8150   26.9890 C   0  0  0  0  0  0  0  0  0  0  0  0
   38.7690   40.1830   26.2700 C   0  0  0  0  0  0  0  0  0  0  0  0
   36.0880   38.1640   29.0220 C   0  0  0  0  0  0  0  0  0  0  0  0
  2 10  1  0
  3  8  2  0
  3 11  1  0
  6  4  1  0
  6  5  1  0
  7  3  1  0
  9  1  1  0
  9  7  1  0
 10  9  1  0
 11  4  1  0
M  END
$$$$

     RDKit          3D

  8  7  0  0  0  0  0  0  0  0999 V2000
   39.3430   37.2320   25.5920 C   0  0  0  0  0  0  0  0  0  0  0  0
   38.4010   39.1780   26.8550 C   0  0  0  0  0  0  0  0  0  0  0  0
   39.7870   41.5210   25.8150 O   0  0  0  0  0  0  0  0  0  0  0  0
   39.0900   38.7220   25.5820 C   0  0  0  0  0  0  0  0  0  0  0  0
   39.8240   41.3150   27.2200 C   0  0  0  0  0  0  0  0  0  0  0  0
   39.5130   42.5250   27.6430 N   0  0  0  0  0  0  0  0  0  0  0  0
   38.6470   36.5080   26.6580 O   0  0  0  0  0  0  0  0  0  0  0  0
   39.2520   40.1510   27.6350 C   0  0  0  0  0  0  0  0  0  0  0  0
  1  7  1  0
  2  8  1  0
  4  1  1  0
  4  2  1  0
  5  3  1  0
  5  8  1  0
  5  6  1  0
M  END
$$$$

     RDKit          3D

 15 14  0  0  0  0  0  0  0  0999 V2000
   35.0220   37.5960   29.9430 C   0  0  0  0  0  0  0  0  0  0  0  0
   38.2800   38.4920   26.1920 C   0  0  0  0  0  0  0  0  0  0  0  0
   37.0940   39.3490   25.6110 C   0  0  0  0  0  0  0  0  0  0  0  0
   37.4170   40.8320   25.3610 C   0  0  0  0  0  0  0  0  0  0  0  0
   32.8970   36.9470   32.0000 O   0  0  0  0  0  0  0  0  0  0  0  0
   38.0360   37.8810   27.5880 C   0  0  0  0  0  0  0  0  0  0  0  0
   34.4320   36.3230   30.3600 C   0  0  0  0  0  0  0  0  0  0  0  0
   35.2080   35.2480   30.4250 N   0  0  0  0  0  0  0  0  0  0  0  0
   32.3470   35.2190   30.7820 O   0  0  0  0  0  0  0  0  0  0  0  0
   36.4950   37.6080   29.5820 C   0  0  0  0  0  0  0  0  0  0  0  0
   36.8120   41.7140   26.4160 C   0  0  0  0  0  0  0  0  0  0  0  0
   36.6860   38.2590   28.2140 C   0  0  0  0  0  0  0  0  0  0  0  0
   36.2710   43.0590   25.9220 C   0  0  0  0  0  0  0  0  0  0  0  0
   33.1260   36.1710   31.0300 C   0  0  0  0  0  0  0  0  0  0  0  0
   39.5070   39.2790   26.3000 O   0  0  0  0  0  0  0  0  0  0  0  0
  1  7  1  0
  2 15  1  0
  2  6  1  0
  3  2  1  0
  4  3  1  0
  4 11  1  0
  6 12  1  0
  7  8  2  0
  7 14  1  0
  9 14  2  0
 10  1  1  0
 12 10  1  0
 13 11  1  0
 14  5  1  0
M  END
$$$$

     RDKit          3D

 25 26  0  0  0  0  0  0  0  0999 V2000
   36.2610   37.4540   29.3350 N   0  0  0  0  0  0  0  0  0  0  0  0
   34.1480   34.2450   31.6730 C   0  0  0  0  0  0  0  0  0  0  0  0
   33.4790   33.7260   32.8050 C   0  0  0  0  0  0  0  0  0  0  0  0
   34.8190   37.2480   31.0210 O   0  0  0  0  0  0  0  0  0  0  0  0
   38.1670   41.5380   25.5690 N   0  0  0  0  0  0  0  0  0  0  0  0
   35.6480   33.5330   33.8250 C   0  0  0  0  0  0  0  0  0  0  0  0
   35.4180   34.7620   31.6980 C   0  0  0  0  0  0  0  0  0  0  0  0
   35.9490   40.0010   29.4350 O   0  0  0  0  0  0  0  0  0  0  0  0
   38.5630   39.5140   27.2840 C   0  0  0  0  0  0  0  0  0  0  0  0
   34.2470   33.3270   33.9230 C   0  0  0  0  0  0  0  0  0  0  0  0
   35.3020   39.7190   27.3060 O   0  0  0  0  0  0  0  0  0  0  0  0
   36.2210   34.3010   32.8100 C   0  0  0  0  0  0  0  0  0  0  0  0
   37.4330   38.8770   28.1130 C   0  0  0  0  0  0  0  0  0  0  0  0
   35.7460   36.7170   30.2940 C   0  0  0  0  0  0  0  0  0  0  0  0
   40.1140   42.3060   24.3070 C   0  0  0  0  0  0  0  0  0  0  0  0
   38.6960   40.4290   26.1310 C   0  0  0  0  0  0  0  0  0  0  0  0
   36.1830   39.5730   28.2180 C   0  0  0  0  0  0  0  0  0  0  0  0
   37.6200   37.6000   28.8640 C   0  0  0  0  0  0  0  0  0  0  0  0
   36.0940   35.3720   30.5300 C   0  0  0  0  0  0  0  0  0  0  0  0
   38.0180   36.4600   27.9530 C   0  0  0  0  0  0  0  0  0  0  0  0
   39.1030   40.3440   28.2970 O   0  0  0  0  0  0  0  0  0  0  0  0
   40.3320   40.1420   23.1220 O   0  0  0  0  0  0  0  0  0  0  0  0
   39.8570   40.9610   24.1070 C   0  0  0  0  0  0  0  0  0  0  0  0
   40.0270   43.4280   25.1780 C   0  0  0  0  0  0  0  0  0  0  0  0
   38.6250   40.5640   24.7160 N   0  0  0  0  0  0  0  0  0  0  0  0
  1 14  1  0
  2  7  2  0
  2  3  1  0
  3 10  2  0
  5 16  1  0
  6 10  1  0
  7 12  1  0
  9 13  1  0
  9 21  1  0
 11 17  2  0
 12  6  2  0
 13 17  1  0
 13 18  1  0
 14 19  1  0
 14  4  2  0
 15 24  1  0
 16  9  1  0
 17  8  1  0
 18 20  1  0
 18  1  1  0
 19  7  1  0
 22 23  2  0
 23 15  1  0
 23 25  1  0
 25  5  1  0
 25 16  1  0
M  END
$$$$

     RDKit          3D

  9  8  0  0  0  0  0  0  0  0999 V2000
   35.9190   40.1730   28.4890 O   0  0  0  0  0  0  0  0  0  0  0  0
   38.9690   41.4020   26.8440 O   0  0  0  0  0  0  0  0  0  0  0  0
   38.2720   40.3580   26.7290 C   0  0  0  0  0  0  0  0  0  0  0  0
   38.1600   40.7520   29.1100 C   0  0  0  0  0  0  0  0  0  0  0  0
   38.1310   37.4930   27.2750 O   0  0  0  0  0  0  0  0  0  0  0  0
   37.3070   40.0460   27.9240 C   0  0  0  0  0  0  0  0  0  0  0  0
   38.3470   39.6960   25.7090 O   0  0  0  0  0  0  0  0  0  0  0  0
   35.9780   38.1380   27.0330 O   0  0  0  0  0  0  0  0  0  0  0  0
   37.1920   38.4710   27.7170 C   0  0  0  0  0  0  0  0  0  0  0  0
  3  2  1  0
  3  6  1  0
  5  9  1  0
  6  1  1  0
  6  4  1  0
  7  3  2  0
  8  9  2  0
  9  6  1  0
M  END
$$$$

     RDKit          3D

  6  5  0  0  0  0  0  0  0  0999 V2000
   38.3320   40.9810   25.1840 C   0  0  0  0  0  0  0  0  0  0  0  0
   38.7940   41.5710   24.3870 O   0  0  0  0  0  0  0  0  0  0  0  0
   39.3650   40.5920   27.0890 C   0  0  0  0  0  0  0  0  0  0  0  0
   39.2810   38.7090   25.6620 C   0  0  0  0  0  0  0  0  0  0  0  0
   38.5440   39.9740   26.0380 N   0  0  0  0  0  0  0  0  0  0  0  0
   37.3520   39.2090   26.5330 C   0  0  0  0  0  0  0  0  0  0  0  0
  1  5  1  0
  2  1  2  0
  4  5  1  0
  5  6  1  0
  5  3  1  0
M  END
$$$$

     RDKit          3D

  9  8  0  0  0  0  0  0  0  0999 V2000
   34.3090   37.3990   29.0660 O   0  0  0  0  0  0  0  0  0  0  0  0
   38.3100   35.8460   29.6100 C   0  0  0  0  0  0  0  0  0  0  0  0
   33.5370   36.1880   30.5670 O   0  0  0  0  0  0  0  0  0  0  0  0
   37.1320   37.4970   28.2600 C   0  0  0  0  0  0  0  0  0  0  0  0
   36.5880   38.8640   28.4230 C   0  0  0  0  0  0  0  0  0  0  0  0
   38.6520   34.6860   29.9620 N   0  0  0  0  0  0  0  0  0  0  0  0
   37.0650   36.5050   29.3790 C   0  0  0  0  0  0  0  0  0  0  0  0
   34.5190   36.5720   29.9290 C   0  0  0  0  0  0  0  0  0  0  0  0
   35.9080   35.9750   30.1510 C   0  0  0  0  0  0  0  0  0  0  0  0
  1  8  2  0
  2  6  2  0
  4  5  1  0
  4  7  1  0
  7  2  1  0
  7  9  2  3
  8  9  1  0
  8  3  1  0
M  END
$$$$

     RDKit          3D

  9  9  0  0  0  0  0  0  0  0999 V2000
   36.8470   40.0700   24.7270 C   0  0  0  0  0  0  0  0  0  0  0  0
   39.0680   38.2920   27.3880 C   0  0  0  0  0  0  0  0  0  0  0  0
   38.2990   38.0570   24.5470 N   0  0  0  0  0  0  0  0  0  0  0  0
   39.4770   40.5550   25.9910 O   0  0  0  0  0  0  0  0  0  0  0  0
   38.9090   40.8380   27.2460 C   0  0  0  0  0  0  0  0  0  0  0  0
   37.7160   39.0380   25.4010 C   0  0  0  0  0  0  0  0  0  0  0  0
   36.2150   39.7470   23.7080 O   0  0  0  0  0  0  0  0  0  0  0  0
   38.6660   39.5170   26.5060 C   0  0  0  0  0  0  0  0  0  0  0  0
   36.5370   41.1930   25.2530 O   0  0  0  0  0  0  0  0  0  0  0  0
  1  9  1  0
  1  6  1  0
  4  8  1  0
  4  5  1  0
  6  3  1  0
  6  8  1  0
  7  1  2  0
  8  5  1  0
  8  2  1  0
M  END
$$$$

     RDKit          3D

  7  6  0  0  0  0  0  0  0  0999 V2000
   39.1670   42.3840   27.2710 O   0  0  0  0  0  0  0  0  0  0  0  0
   39.7520   39.0550   25.9100 C   0  0  0  0  0  0  0  0  0  0  0  0
   38.2520   41.4290   25.2640 O   0  0  0  0  0  0  0  0  0  0  0  0
   38.8740   37.2180   24.9360 O   0  0  0  0  0  0  0  0  0  0  0  0
   39.0130   41.1820   26.5710 N   0  0  0  0  0  0  0  0  0  0  0  0
   38.4650   38.4890   25.4170 C   0  0  0  0  0  0  0  0  0  0  0  0
   39.8750   40.2920   26.4620 C   0  0  0  0  0  0  0  0  0  0  0  0
  2  7  2  3
  3  5  2  0
  4  6  1  0
  5  1  2  0
  6  2  1  0
  7  5  1  0
M  END
$$$$

     RDKit          3D

 32 32  0  0  0  0  0  0  0  0999 V2000
   33.2950   38.7870   19.6640 N   0  0  0  0  0  0  0  0  0  0  0  0
   34.6490   38.5050   16.6850 C   0  0  0  0  0  0  0  0  0  0  0  0
   36.3870   38.4450   23.3860 C   0  0  0  0  0  0  0  0  0  0  0  0
   34.1460   39.3570   23.5060 C   0  0  0  0  0  0  0  0  0  0  0  0
   33.3700   36.7770   19.1180 O   0  0  0  0  0  0  0  0  0  0  0  0
   32.5000   38.3950   20.8270 C   0  0  0  0  0  0  0  0  0  0  0  0
   33.5230   37.7170   18.7130 C   0  0  0  0  0  0  0  0  0  0  0  0
   37.1030   33.6750   32.3630 C   0  0  0  0  0  0  0  0  0  0  0  0
   32.2390   39.5870   21.7290 C   0  0  0  0  0  0  0  0  0  0  0  0
   38.9010   32.2150   35.8480 O   0  0  0  0  0  0  0  0  0  0  0  0
   33.4470   37.7060   17.1830 C   0  0  0  0  0  0  0  0  0  0  0  0
   37.0340   35.0490   32.1140 O   0  0  0  0  0  0  0  0  0  0  0  0
   36.4580   37.8850   30.2880 C   0  0  0  0  0  0  0  0  0  0  0  0
   36.2070   37.3840   31.6400 C   0  0  0  0  0  0  0  0  0  0  0  0
   37.9670   33.3270   33.4660 C   0  0  0  0  0  0  0  0  0  0  0  0
   37.3510   39.3480   28.4690 C   0  0  0  0  0  0  0  0  0  0  0  0
   35.3950   38.9630   25.5270 C   0  0  0  0  0  0  0  0  0  0  0  0
   36.1790   38.6510   27.7900 C   0  0  0  0  0  0  0  0  0  0  0  0
   34.9050   38.8650   28.5320 C   0  0  0  0  0  0  0  0  0  0  0  0
   36.0340   33.2060   33.1510 O   0  0  0  0  0  0  0  0  0  0  0  0
   39.5320   31.9160   34.6510 C   0  0  0  0  0  0  0  0  0  0  0  0
   35.9390   35.3120   31.1440 C   0  0  0  0  0  0  0  0  0  0  0  0
   39.3510   32.8840   33.4570 C   0  0  0  0  0  0  0  0  0  0  0  0
   40.1210   30.8540   34.4710 O   0  0  0  0  0  0  0  0  0  0  0  0
   32.7960   39.8030   23.0040 C   0  0  0  0  0  0  0  0  0  0  0  0
   35.2650   38.9910   22.7460 C   0  0  0  0  0  0  0  0  0  0  0  0
   36.4560   38.4410   24.7930 C   0  0  0  0  0  0  0  0  0  0  0  0
   35.5290   39.3790   26.7550 N   0  0  0  0  0  0  0  0  0  0  0  0
   34.1920   39.2510   24.8940 C   0  0  0  0  0  0  0  0  0  0  0  0
   37.6700   38.6380   29.7810 C   0  0  0  0  0  0  0  0  0  0  0  0
   33.5310   36.3990   16.3730 C   0  0  0  0  0  0  0  0  0  0  0  0
   35.3830   36.3130   31.0100 C   0  0  0  0  0  0  0  0  0  0  0  0
  1  6  1  0
  2 11  1  0
  3 27  1  0
  4 29  2  0
  6  9  1  0
  7  5  2  0
  7  1  1  0
  8 20  1  0
  8 15  1  0
  9 25  1  0
 11  7  1  0
 12  8  1  0
 13 14  1  0
 16 30  1  0
 17 28  1  0
 18 16  1  0
 18 19  1  0
 21 10  1  0
 22 12  1  0
 23 15  1  0
 23 21  1  0
 24 21  2  0
 25  4  1  0
 26  3  2  0
 26  4  1  0
 27 17  2  0
 28 18  1  0
 29 17  1  0
 30 13  1  0
 31 11  1  0
 32 22  1  0
 32 14  1  0
M  END
$$$$

     RDKit          3D

  7  6  0  0  0  0  0  0  0  0999 V2000
   37.0760   41.6930   25.3170 C   0  0  0  0  0  0  0  0  0  0  0  0
   39.5220   38.1250   26.8500 O   0  0  0  0  0  0  0  0  0  0  0  0
   38.2650   40.1080   26.7780 C   0  0  0  0  0  0  0  0  0  0  0  0
   37.2990   37.8630   26.8540 N   0  0  0  0  0  0  0  0  0  0  0  0
   37.2070   41.4280   23.8260 C   0  0  0  0  0  0  0  0  0  0  0  0
   37.5270   40.9690   26.4590 C   0  0  0  0  0  0  0  0  0  0  0  0
   38.3660   38.6990   26.8200 C   0  0  0  0  0  0  0  0  0  0  0  0
  1  6  1  0
  3  7  1  0
  5  1  1  0
  6  3  1  0
  7  2  2  0
  7  4  1  0
M  END
$$$$

     RDKit          3D

  9  8  0  0  0  0  0  0  0  0999 V2000
   39.4740   37.5580   25.9020 O   0  0  0  0  0  0  0  0  0  0  0  0
   39.2700   36.1930   27.6360 O   0  0  0  0  0  0  0  0  0  0  0  0
   38.4030   37.2410   27.8900 C   0  0  0  0  0  0  0  0  0  0  0  0
   38.2070   39.5460   26.6780 C   0  0  0  0  0  0  0  0  0  0  0  0
   36.2380   40.4880   25.4360 C   0  0  0  0  0  0  0  0  0  0  0  0
   37.0300   36.9810   27.7000 O   0  0  0  0  0  0  0  0  0  0  0  0
   38.9080   38.2820   26.9160 C   0  0  0  0  0  0  0  0  0  0  0  0
   36.7410   39.6670   26.5590 C   0  0  0  0  0  0  0  0  0  0  0  0
   38.9620   40.5880   26.5280 O   0  0  0  0  0  0  0  0  0  0  0  0
  2  3  1  0
  4  9  1  0
  4  7  1  0
  5  8  1  0
  6  3  1  0
  7  1  1  0
  7  3  1  0
  8  4  1  0
M  END
$$$$

     RDKit          3D

 12 13  0  0  0  0  0  0  0  0999 V2000
   39.4990   43.4270   26.8910 O   0  0  0  0  0  0  0  0  0  0  0  0
   38.9440   36.9090   26.2630 C   0  0  0  0  0  0  0  0  0  0  0  0
   38.8050   38.1070   25.5040 N   0  0  0  0  0  0  0  0  0  0  0  0
   37.7230   41.9750   27.6300 O   0  0  0  0  0  0  0  0  0  0  0  0
   40.0280   38.9190   25.2160 C   0  0  0  0  0  0  0  0  0  0  0  0
   38.0420   38.2360   24.2850 O   0  0  0  0  0  0  0  0  0  0  0  0
   38.7410   41.1920   27.5510 C   0  0  0  0  0  0  0  0  0  0  0  0
   40.2820   39.6060   26.5420 C   0  0  0  0  0  0  0  0  0  0  0  0
   37.9170   39.2640   26.0620 O   0  0  0  0  0  0  0  0  0  0  0  0
   38.8630   42.4900   26.9040 C   0  0  0  0  0  0  0  0  0  0  0  0
   38.8140   39.8330   26.9990 C   0  0  0  0  0  0  0  0  0  0  0  0
   40.9190   38.3300   24.1940 O   0  0  0  0  0  0  0  0  0  0  0  0
  3  9  1  0
  3  2  1  0
  5  3  1  0
  5  8  1  0
  6  3  1  0
  7  4  1  0
  9 11  1  0
 10  1  1  0
 10  7  1  0
 10  4  1  0
 11  8  1  0
 11  7  1  0
 12  5  2  0
M  END
$$$$

     RDKit          3D

 11 12  0  0  0  0  0  0  0  0999 V2000
   35.2990   37.5220   29.2620 C   0  0  0  0  0  0  0  0  0  0  0  0
   34.7020   35.9060   30.8580 N   0  0  0  0  0  0  0  0  0  0  0  0
   35.5980   36.6770   30.3410 C   0  0  0  0  0  0  0  0  0  0  0  0
   36.3620   38.3890   28.9590 N   0  0  0  0  0  0  0  0  0  0  0  0
   33.3270   35.7570   30.3830 C   0  0  0  0  0  0  0  0  0  0  0  0
   35.4550   35.1010   31.7420 C   0  0  0  0  0  0  0  0  0  0  0  0
   36.7430   35.6120   31.8100 N   0  0  0  0  0  0  0  0  0  0  0  0
   37.8070   37.5620   30.6290 C   0  0  0  0  0  0  0  0  0  0  0  0
   38.4660   39.5060   29.2440 C   0  0  0  0  0  0  0  0  0  0  0  0
   37.5290   38.4290   29.6980 C   0  0  0  0  0  0  0  0  0  0  0  0
   36.8310   36.5810   30.9420 C   0  0  0  0  0  0  0  0  0  0  0  0
  1  3  1  0
  2  6  1  0
  3  2  1  0
  3 11  2  0
  4  1  2  0
  4 10  1  0
  5  2  1  0
  6  7  2  0
  8 11  1  0
  9 10  1  0
 10  8  2  0
 11  7  1  0
M  END
$$$$

     RDKit          3D

 17 19  0  0  0  0  0  0  0  0999 V2000
   36.6940   37.5050   27.4780 C   0  0  0  0  0  0  0  0  0  0  0  0
   34.7580   41.4700   26.5190 O   0  0  0  0  0  0  0  0  0  0  0  0
   34.6750   38.4280   28.6850 C   0  0  0  0  0  0  0  0  0  0  0  0
   34.4040   37.1130   30.7820 N   0  0  0  0  0  0  0  0  0  0  0  0
   36.2500   36.6040   29.4350 N   0  0  0  0  0  0  0  0  0  0  0  0
   34.2570   39.4910   27.8700 C   0  0  0  0  0  0  0  0  0  0  0  0
   35.8070   37.5240   28.5130 C   0  0  0  0  0  0  0  0  0  0  0  0
   38.6040   35.9030   30.0250 C   0  0  0  0  0  0  0  0  0  0  0  0
   33.8600   38.1170   29.8780 C   0  0  0  0  0  0  0  0  0  0  0  0
   34.9670   40.1780   26.8340 C   0  0  0  0  0  0  0  0  0  0  0  0
   37.5350   35.9540   28.9460 C   0  0  0  0  0  0  0  0  0  0  0  0
   36.2830   39.8220   26.4140 C   0  0  0  0  0  0  0  0  0  0  0  0
   37.6390   36.4580   27.5990 O   0  0  0  0  0  0  0  0  0  0  0  0
   35.5400   36.3350   30.5790 C   0  0  0  0  0  0  0  0  0  0  0  0
   38.2710   38.1830   25.4490 Cl  0  0  0  0  0  0  0  0  0  0  0  0
   36.8610   38.3650   26.5100 C   0  0  0  0  0  0  0  0  0  0  0  0
   35.9480   35.6280   31.4820 O   0  0  0  0  0  0  0  0  0  0  0  0
  1 13  1  0
  2 10  1  0
  3  9  1  0
  5 14  1  0
  6  3  2  0
  7  1  1  0
  7  3  1  0
  7  5  1  0
  9  4  2  0
 10  6  1  0
 11  5  1  0
 11  8  1  0
 12 16  1  0
 12 10  2  0
 13 11  1  0
 14  4  1  0
 14 17  2  0
 15 16  1  0
 16  1  2  0
M  END
$$$$

     RDKit          3D

  6  5  0  0  0  0  0  0  0  0999 V2000
   38.1400   39.9330   25.5200 C   0  0  0  0  0  0  0  0  0  0  0  0
   39.6550   41.2190   27.0420 C   0  0  0  0  0  0  0  0  0  0  0  0
   38.6240   39.6870   24.3060 O   0  0  0  0  0  0  0  0  0  0  0  0
   37.0940   40.5730   25.6580 O   0  0  0  0  0  0  0  0  0  0  0  0
   39.3070   38.9280   27.3360 C   0  0  0  0  0  0  0  0  0  0  0  0
   39.1720   40.0580   26.3680 N   0  0  0  0  0  0  0  0  0  0  0  0
  1  4  1  0
  1  6  1  0
  3  1  2  0
  6  2  1  0
  6  5  1  0
M  END
$$$$
