
     RDKit          3D

 21 21  0  0  0  0  0  0  0  0999 V2000
   36.9320   38.2030   23.9710 C   0  0  0  0  0  0  0  0  0  0  0  0
   35.9320   36.6150   29.3910 C   0  0  0  0  0  0  0  0  0  0  0  0
   34.8740   37.9020   22.5390 C   0  0  0  0  0  0  0  0  0  0  0  0
   36.4450   37.3760   31.4570 C   0  0  0  0  0  0  0  0  0  0  0  0
   35.0450   36.3500   34.4820 C   0  0  0  0  0  0  0  0  0  0  0  0
   37.0250   38.6090   28.1170 C   0  0  0  0  0  0  0  0  0  0  0  0
   37.6120   38.0480   29.3630 C   0  0  0  0  0  0  0  0  0  0  0  0
   36.2300   37.1710   34.9980 C   0  0  0  0  0  0  0  0  0  0  0  0
   35.1670   36.5370   31.8550 C   0  0  0  0  0  0  0  0  0  0  0  0
   36.9500   36.6790   25.7890 O   0  0  0  0  0  0  0  0  0  0  0  0
   37.2050   38.0300   32.6470 C   0  0  0  0  0  0  0  0  0  0  0  0
   38.0140   40.4620   26.4960 O   0  0  0  0  0  0  0  0  0  0  0  0
   36.7120   37.2950   30.1580 N   0  0  0  0  0  0  0  0  0  0  0  0
   39.2010   38.1320   26.5950 O   0  0  0  0  0  0  0  0  0  0  0  0
   36.6270   38.1860   33.9910 C   0  0  0  0  0  0  0  0  0  0  0  0
   38.0160   38.9670   26.6400 S   0  0  0  0  0  0  0  0  0  0  0  0
   36.0480   37.6470   23.2620 N   0  0  0  0  0  0  0  0  0  0  0  0
   35.1700   36.2670   33.1310 N   0  0  0  0  0  0  0  0  0  0  0  0
   36.8460   38.1290   25.5510 C   0  0  0  0  0  0  0  0  0  0  0  0
   36.6070   36.4400   22.6390 C   0  0  0  0  0  0  0  0  0  0  0  0
   35.5940   35.8370   28.5640 N   0  0  0  0  0  0  0  0  0  0  0  0
  1 19  1  0
  2 13  1  0
  3 17  1  0
  4 13  1  0
  4  9  1  0
  4 11  1  0
  5  8  1  0
  6  7  1  0
  7 13  1  0
  9 18  1  0
 11 15  1  0
 12 16  2  0
 14 16  2  0
 15  8  1  0
 16  6  1  0
 17  1  1  0
 18  5  1  0
 19 10  1  0
 19 16  1  0
 20 17  1  0
 21  2  3  0
M  END
$$$$

     RDKit          3D

 10  9  0  0  0  0  0  0  0  0999 V2000
   35.4350   36.7270   26.0150 O   0  0  0  0  0  0  0  0  0  0  0  0
   37.4330   40.5010   25.4380 C   0  0  0  0  0  0  0  0  0  0  0  0
   35.9010   36.9360   24.8480 P   0  0  0  0  0  0  0  0  0  0  0  0
   38.5140   40.1680   24.5380 N   0  0  0  0  0  0  0  0  0  0  0  0
   35.8430   38.6820   24.5110 C   0  0  0  0  0  0  0  0  0  0  0  0
   36.3510   39.5530   25.6460 C   0  0  0  0  0  0  0  0  0  0  0  0
   36.6800   39.0470   23.4300 O   0  0  0  0  0  0  0  0  0  0  0  0
   37.5050   41.6160   26.0200 O   0  0  0  0  0  0  0  0  0  0  0  0
   37.1210   36.4740   24.1270 O   0  0  0  0  0  0  0  0  0  0  0  0
   34.7660   36.3630   23.9150 O   0  0  0  0  0  0  0  0  0  0  0  0
  2  6  1  0
  2  8  2  0
  3  1  1  0
  4  2  1  0
  5  7  1  0
  5  3  1  0
  5  6  1  0
  9  3  1  0
 10  3  2  0
M  END
$$$$

     RDKit          3D

 11 10  0  0  0  0  0  0  0  0999 V2000
   37.4450   41.7420   22.6720 O   0  0  0  0  0  0  0  0  0  0  0  0
   36.9180   36.2380   22.7710 O   0  0  0  0  0  0  0  0  0  0  0  0
   34.7470   35.8490   23.6320 O   0  0  0  0  0  0  0  0  0  0  0  0
   36.6730   36.2660   25.0210 O   0  0  0  0  0  0  0  0  0  0  0  0
   36.1000   36.6320   23.8510 S   0  0  0  0  0  0  0  0  0  0  0  0
   35.2590   38.0930   23.6400 C   0  0  0  0  0  0  0  0  0  0  0  0
   37.2890   41.2220   23.8120 C   0  0  0  0  0  0  0  0  0  0  0  0
   37.5270   42.0640   24.7980 O   0  0  0  0  0  0  0  0  0  0  0  0
   36.1310   40.3330   23.9250 C   0  0  0  0  0  0  0  0  0  0  0  0
   33.8330   38.2800   23.5080 O   0  0  0  0  0  0  0  0  0  0  0  0
   35.9550   39.2210   22.8680 C   0  0  0  0  0  0  0  0  0  0  0  0
  1  7  2  0
  2  5  1  0
  3  5  1  0
  5  4  1  0
  6  5  1  0
  7  9  1  0
  7  8  1  0
 10  6  2  0
 11  6  1  0
 11  9  1  0
M  END
$$$$

     RDKit          3D

 10 12  0  0  0  0  0  0  0  0999 V2000
   37.7510   41.5730   24.0460 C   0  0  0  0  0  0  0  0  0  0  0  0
   36.6350   37.8950   22.3920 C   0  0  0  0  0  0  0  0  0  0  0  0
   37.2980   40.4150   20.1730 O   0  0  0  0  0  0  0  0  0  0  0  0
   36.9390   39.2790   22.3370 C   0  0  0  0  0  0  0  0  0  0  0  0
   34.2720   41.4080   21.2030 O   0  0  0  0  0  0  0  0  0  0  0  0
   36.3070   39.7870   21.0220 C   0  0  0  0  0  0  0  0  0  0  0  0
   35.2810   40.1310   20.5060 C   0  0  0  0  0  0  0  0  0  0  0  0
   35.3880   40.6030   21.6820 C   0  0  0  0  0  0  0  0  0  0  0  0
   35.7320   41.0370   23.0360 O   0  0  0  0  0  0  0  0  0  0  0  0
   37.0550   40.5900   23.1620 C   0  0  0  0  0  0  0  0  0  0  0  0
  4  2  1  0
  4 10  1  0
  6  3  1  0
  6  8  1  0
  6  4  1  0
  7  6  1  0
  7  5  1  0
  7  8  1  0
  8  5  1  0
  8  9  1  0
  9 10  1  0
 10  1  1  0
M  END
$$$$

     RDKit          3D

 18 19  0  0  0  0  0  0  0  0999 V2000
   36.6820   42.0050   21.1400 C   0  0  0  0  0  0  0  0  0  0  0  0
   36.5070   37.5990   23.6260 C   0  0  0  0  0  0  0  0  0  0  0  0
   36.4960   37.7830   25.2440 C   0  0  0  0  0  0  0  0  0  0  0  0
   35.1660   36.9010   28.8770 C   0  0  0  0  0  0  0  0  0  0  0  0
   35.6630   38.7570   23.1680 C   0  0  0  0  0  0  0  0  0  0  0  0
   34.3450   41.6430   21.4360 C   0  0  0  0  0  0  0  0  0  0  0  0
   36.4790   39.6680   22.2620 C   0  0  0  0  0  0  0  0  0  0  0  0
   35.9930   37.0340   29.9910 N   0  0  0  0  0  0  0  0  0  0  0  0
   34.1320   35.8580   29.4670 N   0  0  0  0  0  0  0  0  0  0  0  0
   36.5260   36.0010   27.2900 C   0  0  0  0  0  0  0  0  0  0  0  0
   37.8420   39.5000   22.5910 N   0  0  0  0  0  0  0  0  0  0  0  0
   34.1840   38.8890   23.0290 C   0  0  0  0  0  0  0  0  0  0  0  0
   37.1960   36.6120   25.1670 C   0  0  0  0  0  0  0  0  0  0  0  0
   36.9900   35.6680   26.0610 C   0  0  0  0  0  0  0  0  0  0  0  0
   37.1480   40.7660   22.1330 C   0  0  0  0  0  0  0  0  0  0  0  0
   35.5440   41.8270   20.4440 C   0  0  0  0  0  0  0  0  0  0  0  0
   35.9080   37.1670   27.5140 C   0  0  0  0  0  0  0  0  0  0  0  0
   35.8550   38.0260   26.4360 C   0  0  0  0  0  0  0  0  0  0  0  0
  2  3  1  0
  3 18  1  0
  4  9  2  0
  4  8  1  0
  5 12  1  0
  5  2  1  0
  7 11  1  0
  7  5  1  0
 10 17  1  0
 13  3  2  0
 13 14  1  0
 14 10  2  0
 15  1  1  0
 15  7  1  0
 15 11  1  0
 16  1  1  0
 16  6  1  0
 17  4  1  0
 18 17  2  0
M  END
$$$$

     RDKit          3D

 12 13  0  0  0  0  0  0  0  0999 V2000
   35.0430   36.8790   26.5350 C   0  0  0  0  0  0  0  0  0  0  0  0
   37.0460   37.2790   24.7170 N   0  0  0  0  0  0  0  0  0  0  0  0
   35.9200   37.9880   24.7050 C   0  0  0  0  0  0  0  0  0  0  0  0
   35.7250   39.0070   24.0450 O   0  0  0  0  0  0  0  0  0  0  0  0
   34.0280   36.3400   27.4540 C   0  0  0  0  0  0  0  0  0  0  0  0
   36.3340   35.7750   26.4320 C   0  0  0  0  0  0  0  0  0  0  0  0
   38.0120   37.9880   23.9300 C   0  0  0  0  0  0  0  0  0  0  0  0
   37.2620   36.1380   25.5310 C   0  0  0  0  0  0  0  0  0  0  0  0
   36.6590   39.8770   23.4810 C   0  0  0  0  0  0  0  0  0  0  0  0
   34.8360   37.7350   25.5720 C   0  0  0  0  0  0  0  0  0  0  0  0
   38.9020   37.3930   23.3690 O   0  0  0  0  0  0  0  0  0  0  0  0
   37.8090   39.4800   23.6030 O   0  0  0  0  0  0  0  0  0  0  0  0
  1  5  1  0
  2  8  1  0
  3  2  1  0
  3 10  1  0
  4  3  1  0
  6  1  1  0
  7  2  1  0
  8  6  2  0
  9 12  1  0
  9  4  1  0
 10  1  2  0
 11  7  2  0
 12  7  1  0
M  END
$$$$

     RDKit          3D

 21 22  0  0  0  0  0  0  0  0999 V2000
   35.5230   33.8160   31.1440 C   0  0  0  0  0  0  0  0  0  0  0  0
   34.2980   33.1630   33.2460 C   0  0  0  0  0  0  0  0  0  0  0  0
   34.8140   31.6120   33.0580 C   0  0  0  0  0  0  0  0  0  0  0  0
   36.2780   37.7400   28.5680 N   0  0  0  0  0  0  0  0  0  0  0  0
   36.7830   35.6170   29.7080 C   0  0  0  0  0  0  0  0  0  0  0  0
   35.4070   31.3570   31.8600 C   0  0  0  0  0  0  0  0  0  0  0  0
   40.0760   42.7500   23.6430 C   0  0  0  0  0  0  0  0  0  0  0  0
   36.7960   34.2470   30.4430 C   0  0  0  0  0  0  0  0  0  0  0  0
   36.8910   39.7970   27.6260 C   0  0  0  0  0  0  0  0  0  0  0  0
   38.0350   36.0980   30.1170 O   0  0  0  0  0  0  0  0  0  0  0  0
   40.6840   43.2740   24.6890 N   0  0  0  0  0  0  0  0  0  0  0  0
   38.7020   42.6410   24.4270 C   0  0  0  0  0  0  0  0  0  0  0  0
   35.1740   33.9700   32.4080 N   0  0  0  0  0  0  0  0  0  0  0  0
   39.0760   42.1170   25.5660 C   0  0  0  0  0  0  0  0  0  0  0  0
   35.2490   32.3430   30.7140 C   0  0  0  0  0  0  0  0  0  0  0  0
   37.3130   38.5080   28.2980 C   0  0  0  0  0  0  0  0  0  0  0  0
   38.7870   38.1290   28.4230 C   0  0  0  0  0  0  0  0  0  0  0  0
   40.2380   42.5250   25.5920 N   0  0  0  0  0  0  0  0  0  0  0  0
   38.3920   41.7710   26.9120 C   0  0  0  0  0  0  0  0  0  0  0  0
   37.6990   40.4970   26.7990 C   0  0  0  0  0  0  0  0  0  0  0  0
   35.8530   36.8340   29.5920 C   0  0  0  0  0  0  0  0  0  0  0  0
  1  8  1  0
  1 13  1  0
  3  2  1  0
  4 21  1  0
  5 10  1  0
  5  8  1  0
  6  3  1  0
  7 12  1  0
  7 11  1  0
  9 16  1  0
 11 18  1  0
 12 14  1  0
 13  2  1  0
 14 18  1  0
 14 19  1  0
 15  1  1  0
 15  6  1  0
 16 17  1  0
 16  4  1  0
 20 19  1  0
 20  9  1  0
 21  5  1  0
M  END
$$$$

     RDKit          3D

 12 12  0  0  0  0  0  0  0  0999 V2000
   38.9340   37.5560   27.0160 C   0  0  0  0  0  0  0  0  0  0  0  0
   37.5860   37.2970   27.0380 C   0  0  0  0  0  0  0  0  0  0  0  0
   37.3760   40.7680   30.0180 O   0  0  0  0  0  0  0  0  0  0  0  0
   41.4970   38.5110   28.1570 C   0  0  0  0  0  0  0  0  0  0  0  0
   40.8430   38.3030   25.7710 C   0  0  0  0  0  0  0  0  0  0  0  0
   39.2800   38.9800   27.3070 N   0  0  0  0  0  0  0  0  0  0  0  0
   38.6210   39.9920   28.1590 C   0  0  0  0  0  0  0  0  0  0  0  0
   40.6870   39.2200   26.9890 C   0  0  0  0  0  0  0  0  0  0  0  0
   36.9040   38.6050   29.1250 N   0  0  0  0  0  0  0  0  0  0  0  0
   38.9450   41.2420   27.8660 N   0  0  0  0  0  0  0  0  0  0  0  0
   37.0320   37.3620   28.4170 C   0  0  0  0  0  0  0  0  0  0  0  0
   37.5870   39.7330   29.0820 C   0  0  0  0  0  0  0  0  0  0  0  0
  1  2  1  0
  1  6  1  0
  2 11  1  0
  5  8  1  0
  6  7  1  0
  7 12  1  0
  8  6  1  0
  8  4  1  0
 10  7  2  0
 11  9  1  0
 12  9  1  0
 12  3  2  0
M  END
$$$$

     RDKit          3D

  3  2  0  0  0  0  0  0  0  0999 V2000
   40.7570   39.8930   20.9770 O   0  0  0  0  0  0  0  0  0  0  0  0
   41.4470   39.8660   22.2870 C   0  0  0  0  0  0  0  0  0  0  0  0
   42.0360   37.9660   22.0040 S   0  0  0  0  0  0  0  0  0  0  0  0
  1  2  1  0
  3  2  1  0
M  END
$$$$

     RDKit          3D

 10 10  0  0  0  0  0  0  0  0999 V2000
   37.3640   36.9360   24.1950 C   0  0  0  0  0  0  0  0  0  0  0  0
   36.9130   37.6420   25.4550 C   0  0  0  0  0  0  0  0  0  0  0  0
   35.9040   38.6020   24.9450 N   0  0  0  0  0  0  0  0  0  0  0  0
   34.5840   38.1700   25.3800 C   0  0  0  0  0  0  0  0  0  0  0  0
   33.7950   37.2080   27.4780 C   0  0  0  0  0  0  0  0  0  0  0  0
   34.9950   37.4160   26.6340 C   0  0  0  0  0  0  0  0  0  0  0  0
   36.1230   36.7310   26.3400 C   0  0  0  0  0  0  0  0  0  0  0  0
   38.0520   35.9450   24.2870 O   0  0  0  0  0  0  0  0  0  0  0  0
   37.4770   37.7770   22.9450 C   0  0  0  0  0  0  0  0  0  0  0  0
   33.7000   36.4590   28.4460 O   0  0  0  0  0  0  0  0  0  0  0  0
  1  8  2  0
  2  1  1  0
  2  7  1  0
  3  4  1  0
  3  2  1  0
  4  6  1  0
  5 10  2  0
  6  5  1  0
  7  6  1  0
  9  1  1  0
M  END
$$$$

     RDKit          3D

  6  5  0  0  0  0  0  0  0  0999 V2000
   36.5130   39.2080   23.2920 C   0  0  0  0  0  0  0  0  0  0  0  0
   35.9930   40.2210   21.5030 C   0  0  0  0  0  0  0  0  0  0  0  0
   37.5940   37.9950   24.5540 N   0  0  0  0  0  0  0  0  0  0  0  0
   35.7280   39.9470   22.8680 N   0  0  0  0  0  0  0  0  0  0  0  0
   36.2920   39.0750   20.6180 N   0  0  0  0  0  0  0  0  0  0  0  0
   37.1650   38.0390   23.1920 C   0  0  0  0  0  0  0  0  0  0  0  0
  2  4  1  0
  4  1  1  0
  5  2  1  0
  6  1  1  0
  6  3  1  0
M  END
$$$$

     RDKit          3D

 12 13  0  0  0  0  0  0  0  0999 V2000
   33.3180   37.7530   27.7870 C   0  0  0  0  0  0  0  0  0  0  0  0
   35.7930   37.5630   26.6480 C   0  0  0  0  0  0  0  0  0  0  0  0
   35.7110   36.2260   27.3790 C   0  0  0  0  0  0  0  0  0  0  0  0
   34.4040   38.3490   27.0090 C   0  0  0  0  0  0  0  0  0  0  0  0
   35.3160   36.5650   28.7740 N   0  0  0  0  0  0  0  0  0  0  0  0
   36.2000   40.6100   24.3720 O   0  0  0  0  0  0  0  0  0  0  0  0
   36.7210   39.5090   24.7050 C   0  0  0  0  0  0  0  0  0  0  0  0
   33.8620   36.7350   28.8120 C   0  0  0  0  0  0  0  0  0  0  0  0
   35.8400   37.7040   23.3920 N   0  0  0  0  0  0  0  0  0  0  0  0
   35.0020   38.1050   25.6520 C   0  0  0  0  0  0  0  0  0  0  0  0
   35.5490   38.6790   24.5090 C   0  0  0  0  0  0  0  0  0  0  0  0
   37.8360   38.9070   24.9930 O   0  0  0  0  0  0  0  0  0  0  0  0
  1  8  1  0
  2  4  1  0
  2  3  1  0
  3  5  1  0
  4  1  1  0
  5  8  1  0
  6  7  2  0
  7 12  1  0
 10 11  1  0
 10  2  1  0
 10  4  1  0
 11  9  1  0
 11  7  1  0
M  END
$$$$

     RDKit          3D

  7  6  0  0  0  0  0  0  0  0999 V2000
   36.3270   36.4500   22.4130 C   0  0  0  0  0  0  0  0  0  0  0  0
   36.1980   38.6980   24.6710 N   0  0  0  0  0  0  0  0  0  0  0  0
   34.9410   38.4090   21.9160 O   0  0  0  0  0  0  0  0  0  0  0  0
   35.0610   37.0560   20.4630 O   0  0  0  0  0  0  0  0  0  0  0  0
   35.4900   37.4330   21.6090 C   0  0  0  0  0  0  0  0  0  0  0  0
   36.1730   37.2790   24.7330 C   0  0  0  0  0  0  0  0  0  0  0  0
   37.0300   36.5280   23.7370 C   0  0  0  0  0  0  0  0  0  0  0  0
  1  7  1  0
  2  6  1  0
  4  5  2  0
  5  3  1  0
  5  1  1  0
  7  6  1  0
M  END
$$$$

     RDKit          3D

 10  9  0  0  0  0  0  0  0  0999 V2000
   38.8940   40.1010   22.8310 C   0  0  0  0  0  0  0  0  0  0  0  0
   39.9340   42.2070   21.1160 O   0  0  0  0  0  0  0  0  0  0  0  0
   39.6740   39.0810   23.7020 C   0  0  0  0  0  0  0  0  0  0  0  0
   37.8910   38.4500   22.4610 O   0  0  0  0  0  0  0  0  0  0  0  0
   39.6520   39.2870   25.0270 O   0  0  0  0  0  0  0  0  0  0  0  0
   39.0070   41.3540   21.7130 C   0  0  0  0  0  0  0  0  0  0  0  0
   37.5290   42.5240   21.2370 S   0  0  0  0  0  0  0  0  0  0  0  0
   36.3570   40.0930   22.0950 O   0  0  0  0  0  0  0  0  0  0  0  0
   37.4560   39.7370   22.8750 C   0  0  0  0  0  0  0  0  0  0  0  0
   39.4050   40.8090   22.3050 N   0  0  0  0  0  0  0  0  0  0  0  0
  1  9  1  0
  1  3  1  0
  2  6  2  0
  3  5  1  0
  4  9  1  0
  6 10  1  0
  7  6  1  0
  8  9  1  0
 10  1  2  3
M  END
$$$$

     RDKit          3D

 12 12  0  0  0  0  0  0  0  0999 V2000
   34.9660   34.1500   28.0000 N   0  0  0  0  0  0  0  0  0  0  0  0
   37.2130   36.9950   27.2880 C   0  0  0  0  0  0  0  0  0  0  0  0
   36.8440   35.6540   27.2810 C   0  0  0  0  0  0  0  0  0  0  0  0
   34.4690   38.2050   25.5760 C   0  0  0  0  0  0  0  0  0  0  0  0
   35.4100   38.9310   25.0750 N   0  0  0  0  0  0  0  0  0  0  0  0
   34.2640   37.6170   26.9400 C   0  0  0  0  0  0  0  0  0  0  0  0
   35.5470   40.0310   24.2510 C   0  0  0  0  0  0  0  0  0  0  0  0
   34.5030   36.4360   27.7350 C   0  0  0  0  0  0  0  0  0  0  0  0
   35.3540   35.3070   27.1950 C   0  0  0  0  0  0  0  0  0  0  0  0
   36.7660   39.0100   25.7510 C   0  0  0  0  0  0  0  0  0  0  0  0
   37.2020   40.1490   25.4390 C   0  0  0  0  0  0  0  0  0  0  0  0
   37.4150   37.8490   26.3850 C   0  0  0  0  0  0  0  0  0  0  0  0
  3  2  1  0
  4  6  1  0
  5  4  1  0
  5 10  1  0
  6  8  2  0
  7  5  1  0
  9  3  1  0
  9  8  1  0
  9  1  1  0
 10 12  1  0
 11 10  2  0
 12  2  1  0
M  END
$$$$

     RDKit          3D

 21 22  0  0  0  0  0  0  0  0999 V2000
   37.5040   38.5900   25.7960 C   0  0  0  0  0  0  0  0  0  0  0  0
   34.6450   35.3420   31.4690 C   0  0  0  0  0  0  0  0  0  0  0  0
   38.1970   38.6640   27.9530 C   0  0  0  0  0  0  0  0  0  0  0  0
   35.6280   36.3050   29.0530 C   0  0  0  0  0  0  0  0  0  0  0  0
   32.3280   34.6010   31.9770 O   0  0  0  0  0  0  0  0  0  0  0  0
   36.1470   37.0660   28.0820 C   0  0  0  0  0  0  0  0  0  0  0  0
   31.3260   35.9970   30.2560 C   0  0  0  0  0  0  0  0  0  0  0  0
   38.4720   40.7450   24.1770 P   0  0  0  0  0  0  0  0  0  0  0  0
   37.1280   37.9890   28.5560 C   0  0  0  0  0  0  0  0  0  0  0  0
   33.7800   35.5650   30.4300 C   0  0  0  0  0  0  0  0  0  0  0  0
   35.8470   35.8110   31.2830 C   0  0  0  0  0  0  0  0  0  0  0  0
   32.3510   35.4590   30.8950 C   0  0  0  0  0  0  0  0  0  0  0  0
   39.1730   41.5530   25.1640 O   0  0  0  0  0  0  0  0  0  0  0  0
   36.8430   37.2380   25.8030 C   0  0  0  0  0  0  0  0  0  0  0  0
   35.7970   36.9330   26.6830 O   0  0  0  0  0  0  0  0  0  0  0  0
   37.1820   41.1860   23.6690 O   0  0  0  0  0  0  0  0  0  0  0  0
   34.2320   36.0970   29.2310 C   0  0  0  0  0  0  0  0  0  0  0  0
   38.3170   39.2010   24.9090 N   0  0  0  0  0  0  0  0  0  0  0  0
   38.6600   38.1260   26.7160 C   0  0  0  0  0  0  0  0  0  0  0  0
   36.4810   35.9470   30.0270 C   0  0  0  0  0  0  0  0  0  0  0  0
   39.2220   40.4030   22.9330 O   0  0  0  0  0  0  0  0  0  0  0  0
  1 18  1  0
  1 14  1  0
  1 19  1  0
  3  9  1  0
  4 17  2  0
  4 20  1  0
  6  9  1  0
  6  4  1  0
  7 12  2  0
  8 18  1  0
  8 13  1  0
 10 12  1  0
 10  2  1  0
 11  2  1  0
 12  5  1  0
 14 15  1  0
 15  6  1  0
 16  8  1  0
 17 10  1  0
 19  3  1  0
 20 11  1  0
 21  8  2  0
M  END
$$$$

     RDKit          3D

  9  9  0  0  0  0  0  0  0  0999 V2000
   36.8880   35.1720   25.9850 C   0  0  0  0  0  0  0  0  0  0  0  0
   34.6320   37.0190   26.9750 C   0  0  0  0  0  0  0  0  0  0  0  0
   35.8490   37.3930   26.0020 N   0  0  0  0  0  0  0  0  0  0  0  0
   36.0710   34.8120   27.2570 C   0  0  0  0  0  0  0  0  0  0  0  0
   36.0100   33.7260   27.7320 O   0  0  0  0  0  0  0  0  0  0  0  0
   34.2050   35.7250   28.6780 N   0  0  0  0  0  0  0  0  0  0  0  0
   37.7290   36.8940   24.3600 C   0  0  0  0  0  0  0  0  0  0  0  0
   35.2730   35.9430   27.8800 C   0  0  0  0  0  0  0  0  0  0  0  0
   36.9030   36.5990   25.3870 C   0  0  0  0  0  0  0  0  0  0  0  0
  1  4  1  0
  2  8  1  0
  3  2  1  0
  4  5  2  0
  4  8  1  0
  7  9  2  0
  8  6  1  0
  9  1  1  0
  9  3  1  0
M  END
$$$$

     RDKit          3D

 10  9  0  0  0  0  0  0  0  0999 V2000
   36.6280   39.7790   27.0160 O   0  0  0  0  0  0  0  0  0  0  0  0
   37.1040   36.0000   25.6680 P   0  0  0  0  0  0  0  0  0  0  0  0
   37.1220   37.4570   29.8600 C   0  0  0  0  0  0  0  0  0  0  0  0
   36.1690   37.4970   27.5160 C   0  0  0  0  0  0  0  0  0  0  0  0
   36.9730   39.4050   28.3620 C   0  0  0  0  0  0  0  0  0  0  0  0
   38.1700   34.9810   26.0040 O   0  0  0  0  0  0  0  0  0  0  0  0
   37.8400   37.2240   25.0390 O   0  0  0  0  0  0  0  0  0  0  0  0
   36.9680   36.9400   26.9170 N   0  0  0  0  0  0  0  0  0  0  0  0
   36.2920   38.1360   28.8800 C   0  0  0  0  0  0  0  0  0  0  0  0
   36.4590   35.9430   24.2300 O   0  0  0  0  0  0  0  0  0  0  0  0
  1  5  1  0
  2  6  1  0
  2  8  1  0
  4  9  1  0
  5  9  1  0
  7  2  1  0
  8  4  2  3
  9  3  1  0
 10  2  2  0
M  END
$$$$

     RDKit          3D

 11 11  0  0  0  0  0  0  0  0999 V2000
   36.6490   37.4170   26.6510 C   0  0  0  0  0  0  0  0  0  0  0  0
   34.5070   36.2490   28.8290 C   0  0  0  0  0  0  0  0  0  0  0  0
   35.5960   35.2400   28.8470 C   0  0  0  0  0  0  0  0  0  0  0  0
   38.3920   35.0200   25.4270 O   0  0  0  0  0  0  0  0  0  0  0  0
   36.8120   35.9950   26.8330 C   0  0  0  0  0  0  0  0  0  0  0  0
   35.9210   39.2540   27.9380 O   0  0  0  0  0  0  0  0  0  0  0  0
   36.4020   35.2760   27.7940 C   0  0  0  0  0  0  0  0  0  0  0  0
   36.3730   34.9420   24.8370 O   0  0  0  0  0  0  0  0  0  0  0  0
   35.8450   38.0300   27.7320 C   0  0  0  0  0  0  0  0  0  0  0  0
   34.8310   37.4930   28.5600 N   0  0  0  0  0  0  0  0  0  0  0  0
   37.2160   35.1530   25.7410 C   0  0  0  0  0  0  0  0  0  0  0  0
  1  5  1  0
  1  9  1  0
  2  3  1  0
  4 11  1  0
  5 11  1  0
  5  7  1  0
  7  3  1  0
  8 11  2  0
  9  6  2  0
  9 10  1  0
 10  2  1  0
M  END
$$$$

     RDKit          3D

 12 12  0  0  0  0  0  0  0  0999 V2000
   33.5830   37.2540   25.2660 C   0  0  0  0  0  0  0  0  0  0  0  0
   34.8920   37.6360   24.8780 C   0  0  0  0  0  0  0  0  0  0  0  0
   37.6430   38.4270   24.1660 C   0  0  0  0  0  0  0  0  0  0  0  0
   36.6520   35.0170   23.3630 O   0  0  0  0  0  0  0  0  0  0  0  0
   37.2530   36.9800   24.4410 C   0  0  0  0  0  0  0  0  0  0  0  0
   36.5100   39.3470   24.4040 C   0  0  0  0  0  0  0  0  0  0  0  0
   35.2840   39.0440   25.3420 C   0  0  0  0  0  0  0  0  0  0  0  0
   36.8060   40.6860   24.1870 O   0  0  0  0  0  0  0  0  0  0  0  0
   38.2180   38.7000   22.9070 O   0  0  0  0  0  0  0  0  0  0  0  0
   36.8630   36.2550   23.1980 C   0  0  0  0  0  0  0  0  0  0  0  0
   36.0640   36.7550   25.2340 O   0  0  0  0  0  0  0  0  0  0  0  0
   36.5310   36.8440   22.0590 O   0  0  0  0  0  0  0  0  0  0  0  0
  2 11  1  0
  2  1  1  0
  2  7  1  0
  3  9  1  0
  3  6  1  0
  3  5  1  0
  5 10  1  0
  5 11  1  0
  6  8  1  0
  6  7  1  0
 10  4  1  0
 12 10  2  0
M  END
$$$$
