
     RDKit          3D

  8  7  0  0  0  0  0  0  0  0999 V2000
   40.6300   40.4190   28.6070 C   0  0  0  0  0  0  0  0  0  0  0  0
   39.8640   41.1200   27.4210 C   0  0  0  0  0  0  0  0  0  0  0  0
   42.3630   38.7530   29.1810 O   0  0  0  0  0  0  0  0  0  0  0  0
   38.7990   42.0900   27.9260 C   0  0  0  0  0  0  0  0  0  0  0  0
   42.0440   40.0310   29.1070 C   0  0  0  0  0  0  0  0  0  0  0  0
   39.4900   40.1800   26.4580 C   0  0  0  0  0  0  0  0  0  0  0  0
   42.5970   40.8390   29.9220 O   0  0  0  0  0  0  0  0  0  0  0  0
   39.7730   39.1940   28.6770 N   0  0  0  0  0  0  0  0  0  0  0  0
  1  8  1  0
  1  5  1  0
  2  4  1  0
  2  1  1  0
  5  3  2  0
  5  7  1  0
  6  2  1  0
M  END
$$$$

     RDKit          3D

 12 13  0  0  0  0  0  0  0  0999 V2000
   39.5960   41.5610   29.3920 O   0  0  0  0  0  0  0  0  0  0  0  0
   36.0250   39.5160   30.3540 N   0  0  0  0  0  0  0  0  0  0  0  0
   37.3090   37.5170   30.6110 C   0  0  0  0  0  0  0  0  0  0  0  0
   36.9880   41.4540   29.2500 N   0  0  0  0  0  0  0  0  0  0  0  0
   39.6770   37.4730   29.6900 C   0  0  0  0  0  0  0  0  0  0  0  0
   37.1200   40.1570   29.9340 C   0  0  0  0  0  0  0  0  0  0  0  0
   39.4340   40.2740   29.0920 C   0  0  0  0  0  0  0  0  0  0  0  0
   38.3780   39.5050   29.7630 C   0  0  0  0  0  0  0  0  0  0  0  0
   40.6380   39.5530   28.9560 N   0  0  0  0  0  0  0  0  0  0  0  0
   36.1740   38.2590   30.7610 C   0  0  0  0  0  0  0  0  0  0  0  0
   40.6830   38.1590   28.8900 C   0  0  0  0  0  0  0  0  0  0  0  0
   38.4200   38.1530   30.0470 C   0  0  0  0  0  0  0  0  0  0  0  0
  2 10  1  0
  3 10  2  0
  4  6  1  0
  5 12  1  0
  6  2  2  0
  7  1  2  0
  7  8  1  0
  8  6  1  0
  8 12  2  0
  9  7  1  0
 11  9  1  0
 11  5  1  0
 12  3  1  0
M  END
$$$$

     RDKit          3D

 22 24  0  0  0  0  0  0  0  0999 V2000
   36.8100   34.2650   33.2130 C   0  0  0  0  0  0  0  0  0  0  0  0
   33.0900   36.3150   32.9690 C   0  0  0  0  0  0  0  0  0  0  0  0
   40.8920   36.9220   30.0120 C   0  0  0  0  0  0  0  0  0  0  0  0
   40.1620   41.5240   29.6320 C   0  0  0  0  0  0  0  0  0  0  0  0
   42.8420   42.2500   28.3120 C   0  0  0  0  0  0  0  0  0  0  0  0
   35.5870   35.2970   32.9970 C   0  0  0  0  0  0  0  0  0  0  0  0
   41.5690   38.2250   29.5760 C   0  0  0  0  0  0  0  0  0  0  0  0
   38.1190   34.6270   33.8610 C   0  0  0  0  0  0  0  0  0  0  0  0
   41.8430   40.7430   29.9430 C   0  0  0  0  0  0  0  0  0  0  0  0
   34.7900   34.7750   34.2840 C   0  0  0  0  0  0  0  0  0  0  0  0
   41.3100   39.4300   30.4880 C   0  0  0  0  0  0  0  0  0  0  0  0
   34.3580   36.1410   32.4630 C   0  0  0  0  0  0  0  0  0  0  0  0
   38.0850   35.3540   35.0220 O   0  0  0  0  0  0  0  0  0  0  0  0
   32.6650   35.7250   33.9460 N   0  0  0  0  0  0  0  0  0  0  0  0
   42.7280   41.6540   29.6950 C   0  0  0  0  0  0  0  0  0  0  0  0
   36.3780   35.9160   31.5480 C   0  0  0  0  0  0  0  0  0  0  0  0
   42.5740   40.7500   28.5860 C   0  0  0  0  0  0  0  0  0  0  0  0
   33.6660   35.0110   34.7490 C   0  0  0  0  0  0  0  0  0  0  0  0
   37.4640   36.5310   31.9060 C   0  0  0  0  0  0  0  0  0  0  0  0
   39.2940   34.4890   33.4860 O   0  0  0  0  0  0  0  0  0  0  0  0
   38.9030   36.1750   31.4830 C   0  0  0  0  0  0  0  0  0  0  0  0
   39.4060   37.0320   30.3400 C   0  0  0  0  0  0  0  0  0  0  0  0
  1  8  1  0
  2 14  1  0
  3 22  1  0
  6  1  1  0
  6 10  2  0
  7  3  1  0
  7 11  1  0
  8 13  1  0
  9  4  1  0
  9 11  1  0
 10 18  1  0
 12  2  2  0
 12  6  1  0
 14 18  2  0
 15  5  1  0
 15  9  1  0
 16 19  1  0
 16  6  1  0
 17  5  1  0
 17 15  1  0
 17  9  1  0
 20  8  2  0
 21 19  1  0
 22 21  1  0
M  END
$$$$

     RDKit          3D

 16 15  0  0  0  0  0  0  0  0999 V2000
   40.1840   40.5870   30.5670 O   0  0  0  0  0  0  0  0  0  0  0  0
   37.3580   42.7400   28.4070 C   0  0  0  0  0  0  0  0  0  0  0  0
   40.6900   38.1910   28.1060 O   0  0  0  0  0  0  0  0  0  0  0  0
   36.5780   38.9160   29.3040 C   0  0  0  0  0  0  0  0  0  0  0  0
   40.4820   40.8780   28.3120 F   0  0  0  0  0  0  0  0  0  0  0  0
   40.2760   38.6940   29.1630 C   0  0  0  0  0  0  0  0  0  0  0  0
   40.3870   37.9420   30.1710 O   0  0  0  0  0  0  0  0  0  0  0  0
   38.0630   41.6180   28.8280 C   0  0  0  0  0  0  0  0  0  0  0  0
   35.1320   39.1300   29.9730 C   0  0  0  0  0  0  0  0  0  0  0  0
   38.0920   43.0830   27.2530 O   0  0  0  0  0  0  0  0  0  0  0  0
   38.3160   40.4250   29.3020 C   0  0  0  0  0  0  0  0  0  0  0  0
   37.4260   39.6420   30.1600 C   0  0  0  0  0  0  0  0  0  0  0  0
   38.0120   38.5750   30.9570 O   0  0  0  0  0  0  0  0  0  0  0  0
   39.7720   40.0910   29.2630 C   0  0  0  0  0  0  0  0  0  0  0  0
   37.1160   40.6170   31.4160 C   0  0  0  0  0  0  0  0  0  0  0  0
   35.1790   38.3970   31.0390 O   0  0  0  0  0  0  0  0  0  0  0  0
  2  8  1  0
  3  6  2  0
  4  9  1  0
  4 12  1  0
  6 14  1  0
  6  7  1  0
  9 16  1  0
 10  2  1  0
 11  8  1  0
 11 12  1  0
 12 13  1  0
 12 15  1  0
 14  5  1  0
 14 11  1  0
 14  1  1  0
M  END
$$$$

     RDKit          3D

 15 16  0  0  0  0  0  0  0  0999 V2000
   36.9910   36.0470   31.5230 C   0  0  0  0  0  0  0  0  0  0  0  0
   39.0980   40.2620   32.0440 C   0  0  0  0  0  0  0  0  0  0  0  0
   40.0320   39.2100   31.6440 C   0  0  0  0  0  0  0  0  0  0  0  0
   35.7820   35.9030   31.8830 N   0  0  0  0  0  0  0  0  0  0  0  0
   37.5960   35.4970   30.9640 O   0  0  0  0  0  0  0  0  0  0  0  0
   38.0270   37.1180   31.5350 C   0  0  0  0  0  0  0  0  0  0  0  0
   41.1690   39.6920   32.0770 N   0  0  0  0  0  0  0  0  0  0  0  0
   35.8450   34.4990   32.3180 C   0  0  0  0  0  0  0  0  0  0  0  0
   40.1900   37.9270   31.0700 C   0  0  0  0  0  0  0  0  0  0  0  0
   39.9470   41.5420   31.9780 O   0  0  0  0  0  0  0  0  0  0  0  0
   37.5700   38.0870   32.0750 O   0  0  0  0  0  0  0  0  0  0  0  0
   41.1390   41.1050   31.8740 C   0  0  0  0  0  0  0  0  0  0  0  0
   42.5970   41.4770   32.2320 C   0  0  0  0  0  0  0  0  0  0  0  0
   34.5450   35.2070   32.0180 C   0  0  0  0  0  0  0  0  0  0  0  0
   39.2730   36.9400   30.8070 N   0  0  0  0  0  0  0  0  0  0  0  0
  1  6  1  0
  1  4  1  0
  3  2  1  0
  3  7  1  0
  4 14  1  0
  4  8  1  0
  5  1  2  0
  6 11  2  0
  9  3  2  3
 10  2  1  0
 12 10  1  0
 12  7  2  0
 12 13  1  0
 14  8  1  0
 15  9  1  0
 15  6  1  0
M  END
$$$$

     RDKit          3D

 12 12  0  0  0  0  0  0  0  0999 V2000
   38.4240   40.0510   30.0030 N   0  0  0  0  0  0  0  0  0  0  0  0
   38.4860   37.7450   29.2530 C   0  0  0  0  0  0  0  0  0  0  0  0
   39.5410   40.7500   26.6360 C   0  0  0  0  0  0  0  0  0  0  0  0
   39.2070   40.5680   29.1150 C   0  0  0  0  0  0  0  0  0  0  0  0
   38.6330   41.2180   27.9290 C   0  0  0  0  0  0  0  0  0  0  0  0
   38.5440   38.2400   31.4630 F   0  0  0  0  0  0  0  0  0  0  0  0
   37.9360   38.7380   30.3280 C   0  0  0  0  0  0  0  0  0  0  0  0
   40.4170   39.8410   25.7060 C   0  0  0  0  0  0  0  0  0  0  0  0
   36.4210   39.2260   30.8800 C   0  0  0  0  0  0  0  0  0  0  0  0
   39.9540   39.4090   26.7280 C   0  0  0  0  0  0  0  0  0  0  0  0
   35.6060   38.2700   30.3470 O   0  0  0  0  0  0  0  0  0  0  0  0
   40.3930   40.5990   29.3570 O   0  0  0  0  0  0  0  0  0  0  0  0
  1  7  1  0
  3 10  1  0
  3  5  1  0
  4 12  2  0
  4  1  1  0
  5  4  1  0
  7  2  1  0
  7  9  1  0
  7  6  1  0
  8  3  1  0
  8 10  1  0
 11  9  1  0
M  END
$$$$

     RDKit          3D

 13 13  0  0  0  0  0  0  0  0999 V2000
   39.8850   39.4340   28.0880 C   0  0  0  0  0  0  0  0  0  0  0  0
   34.0850   37.4360   31.6020 N   0  0  0  0  0  0  0  0  0  0  0  0
   35.5290   35.7260   32.5440 C   0  0  0  0  0  0  0  0  0  0  0  0
   34.4560   35.3020   33.3970 C   0  0  0  0  0  0  0  0  0  0  0  0
   37.5810   39.7090   28.9420 C   0  0  0  0  0  0  0  0  0  0  0  0
   34.2350   34.3390   34.3930 C   0  0  0  0  0  0  0  0  0  0  0  0
   35.2970   36.9290   31.7700 C   0  0  0  0  0  0  0  0  0  0  0  0
   36.9080   35.2370   32.0930 C   0  0  0  0  0  0  0  0  0  0  0  0
   37.6760   39.3890   30.1140 C   0  0  0  0  0  0  0  0  0  0  0  0
   38.7460   40.3940   28.3640 C   0  0  0  0  0  0  0  0  0  0  0  0
   37.5690   36.3410   31.3620 N   0  0  0  0  0  0  0  0  0  0  0  0
   36.6130   37.3480   31.3160 C   0  0  0  0  0  0  0  0  0  0  0  0
   36.8430   38.8480   31.0860 C   0  0  0  0  0  0  0  0  0  0  0  0
  1 10  1  0
  2  7  2  0
  3  4  2  3
  4  6  1  0
  5  9  2  3
  7  3  1  0
  8  3  1  0
  9 13  1  0
 10  5  1  0
 11  8  1  0
 12 13  1  0
 12 11  1  0
 12  7  1  0
M  END
$$$$

     RDKit          3D

 15 16  0  0  0  0  0  0  0  0999 V2000
   39.0120   39.9370   31.1200 O   0  0  0  0  0  0  0  0  0  0  0  0
   40.6070   37.6810   29.2020 O   0  0  0  0  0  0  0  0  0  0  0  0
   37.4560   40.9050   29.1270 N   0  0  0  0  0  0  0  0  0  0  0  0
   39.3980   39.6880   28.9360 C   0  0  0  0  0  0  0  0  0  0  0  0
   38.2510   39.8710   29.8720 C   0  0  0  0  0  0  0  0  0  0  0  0
   34.8310   38.5500   29.5520 C   0  0  0  0  0  0  0  0  0  0  0  0
   37.1170   38.9990   29.9500 C   0  0  0  0  0  0  0  0  0  0  0  0
   40.5750   39.0420   29.5820 C   0  0  0  0  0  0  0  0  0  0  0  0
   34.9990   37.3030   30.2990 C   0  0  0  0  0  0  0  0  0  0  0  0
   41.2300   40.6540   31.3030 C   0  0  0  0  0  0  0  0  0  0  0  0
   36.1920   37.0710   30.5340 C   0  0  0  0  0  0  0  0  0  0  0  0
   39.7690   40.7910   28.1770 O   0  0  0  0  0  0  0  0  0  0  0  0
   40.3720   39.4360   30.9950 C   0  0  0  0  0  0  0  0  0  0  0  0
   37.3360   37.7800   30.4810 C   0  0  0  0  0  0  0  0  0  0  0  0
   35.8650   39.3270   29.5070 C   0  0  0  0  0  0  0  0  0  0  0  0
  4 12  1  0
  4  8  1  0
  4  5  1  0
  5  3  1  0
  5  7  1  0
  5  1  1  0
  6  9  1  0
  7 14  2  0
  8  2  1  0
  8 13  1  0
  9 11  2  0
 13  1  1  0
 13 10  1  0
 14 11  1  0
 15  6  2  0
 15  7  1  0
M  END
$$$$

     RDKit          3D

  8  8  0  0  0  0  0  0  0  0999 V2000
   34.0100   37.8920   30.8440 Cl  0  0  0  0  0  0  0  0  0  0  0  0
   35.3290   39.7850   29.6100 C   0  0  0  0  0  0  0  0  0  0  0  0
   39.4090   37.5090   29.9700 Br  0  0  0  0  0  0  0  0  0  0  0  0
   37.7390   38.4580   29.9400 C   0  0  0  0  0  0  0  0  0  0  0  0
   36.4350   40.3420   29.0260 C   0  0  0  0  0  0  0  0  0  0  0  0
   36.6780   37.7670   30.4850 C   0  0  0  0  0  0  0  0  0  0  0  0
   37.6990   39.7030   29.3240 C   0  0  0  0  0  0  0  0  0  0  0  0
   35.5020   38.4270   30.3890 C   0  0  0  0  0  0  0  0  0  0  0  0
  2  8  1  0
  4  3  1  0
  4  6  1  0
  5  7  1  0
  5  2  2  0
  7  4  2  0
  8  6  2  0
  8  1  1  0
M  END
$$$$

     RDKit          3D

 13 13  0  0  0  0  0  0  0  0999 V2000
   31.7480   35.6330   33.7140 C   0  0  0  0  0  0  0  0  0  0  0  0
   38.1210   37.5660   31.1370 O   0  0  0  0  0  0  0  0  0  0  0  0
   35.8010   36.5240   32.4720 C   0  0  0  0  0  0  0  0  0  0  0  0
   37.9230   36.1490   31.2410 C   0  0  0  0  0  0  0  0  0  0  0  0
   36.4960   35.8100   31.5860 C   0  0  0  0  0  0  0  0  0  0  0  0
   33.7880   35.3130   32.3030 C   0  0  0  0  0  0  0  0  0  0  0  0
   29.9560   34.2370   34.8480 C   0  0  0  0  0  0  0  0  0  0  0  0
   34.4980   34.4170   31.4810 C   0  0  0  0  0  0  0  0  0  0  0  0
   34.4580   36.4340   32.7620 C   0  0  0  0  0  0  0  0  0  0  0  0
   30.2990   35.1910   33.7820 C   0  0  0  0  0  0  0  0  0  0  0  0
   29.4170   36.0630   33.6850 C   0  0  0  0  0  0  0  0  0  0  0  0
   32.4960   34.8680   32.8750 C   0  0  0  0  0  0  0  0  0  0  0  0
   35.7860   34.7120   31.0510 C   0  0  0  0  0  0  0  0  0  0  0  0
  1 10  1  0
  2  4  1  0
  3  9  1  0
  4  5  1  0
  5  3  2  0
  6  9  2  0
  6 12  1  0
  8  6  1  0
 10  7  1  0
 11 10  1  0
 12  1  1  0
 13  8  2  0
 13  5  1  0
M  END
$$$$

     RDKit          3D

  8  7  0  0  0  0  0  0  0  0999 V2000
   40.0910   38.1050   29.6640 N   0  0  0  0  0  0  0  0  0  0  0  0
   38.1770   39.3360   30.6870 C   0  0  0  0  0  0  0  0  0  0  0  0
   35.9910   38.4920   30.4890 O   0  0  0  0  0  0  0  0  0  0  0  0
   40.9180   38.4110   28.4120 C   0  0  0  0  0  0  0  0  0  0  0  0
   36.6960   39.5930   30.6730 C   0  0  0  0  0  0  0  0  0  0  0  0
   38.8140   39.7480   31.7240 O   0  0  0  0  0  0  0  0  0  0  0  0
   38.0320   37.2920   29.4920 N   0  0  0  0  0  0  0  0  0  0  0  0
   38.7920   38.2900   29.9480 C   0  0  0  0  0  0  0  0  0  0  0  0
  1  8  1  0
  2  6  2  0
  3  5  1  0
  4  1  1  0
  5  2  1  0
  7  8  2  0
  8  2  1  0
M  END
$$$$

     RDKit          3D

 20 21  0  0  0  0  0  0  0  0999 V2000
   35.4480   40.7240   29.8720 C   0  0  0  0  0  0  0  0  0  0  0  0
   33.0410   36.4590   32.8040 C   0  0  0  0  0  0  0  0  0  0  0  0
   37.8850   40.6030   29.8930 C   0  0  0  0  0  0  0  0  0  0  0  0
   32.6140   38.1400   31.0290 C   0  0  0  0  0  0  0  0  0  0  0  0
   39.9720   39.2930   31.2320 O   0  0  0  0  0  0  0  0  0  0  0  0
   36.9010   40.6800   27.5510 C   0  0  0  0  0  0  0  0  0  0  0  0
   39.5220   39.9580   28.0820 C   0  0  0  0  0  0  0  0  0  0  0  0
   36.6640   40.6920   29.0750 C   0  0  0  0  0  0  0  0  0  0  0  0
   41.8400   40.0770   29.7070 O   0  0  0  0  0  0  0  0  0  0  0  0
   30.8490   36.2470   31.6160 C   0  0  0  0  0  0  0  0  0  0  0  0
   34.1010   37.8810   30.6270 C   0  0  0  0  0  0  0  0  0  0  0  0
   37.6160   39.2850   30.3930 O   0  0  0  0  0  0  0  0  0  0  0  0
   34.8580   38.8230   31.5380 C   0  0  0  0  0  0  0  0  0  0  0  0
   38.3330   40.2880   27.1140 C   0  0  0  0  0  0  0  0  0  0  0  0
   40.7640   41.6440   31.1930 O   0  0  0  0  0  0  0  0  0  0  0  0
   34.9000   40.1150   30.7760 C   0  0  0  0  0  0  0  0  0  0  0  0
   32.2140   36.8760   31.6280 C   0  0  0  0  0  0  0  0  0  0  0  0
   40.5450   40.3710   30.4640 P   0  0  0  0  0  0  0  0  0  0  0  0
   31.9610   35.7780   30.6760 C   0  0  0  0  0  0  0  0  0  0  0  0
   39.2510   40.7360   29.3210 C   0  0  0  0  0  0  0  0  0  0  0  0
  1 16  1  0
  3 12  1  0
  4 17  1  0
  6  8  2  0
  7 20  1  0
  8  1  1  0
  8  3  1  0
  9 18  2  0
 10 17  1  0
 11  4  1  0
 11 13  1  0
 14  6  1  0
 14  7  1  0
 16 13  1  0
 17  2  1  0
 18 15  1  0
 18  5  1  0
 19 10  1  0
 19 17  1  0
 20  3  1  0
 20 18  1  0
M  END
$$$$

     RDKit          3D

 15 15  0  0  0  0  0  0  0  0999 V2000
   38.7210   36.0980   29.4440 O   0  0  0  0  0  0  0  0  0  0  0  0
   37.2360   36.7200   31.1730 N   0  0  0  0  0  0  0  0  0  0  0  0
   35.8190   35.6220   31.1310 S   0  0  0  0  0  0  0  0  0  0  0  0
   38.1360   38.2420   29.6260 C   0  0  0  0  0  0  0  0  0  0  0  0
   32.2240   34.6170   34.6060 O   0  0  0  0  0  0  0  0  0  0  0  0
   38.1120   36.8980   30.0640 C   0  0  0  0  0  0  0  0  0  0  0  0
   38.8170   40.2160   28.7720 C   0  0  0  0  0  0  0  0  0  0  0  0
   37.5410   40.4990   29.3140 C   0  0  0  0  0  0  0  0  0  0  0  0
   33.7420   34.8990   32.6840 C   0  0  0  0  0  0  0  0  0  0  0  0
   32.9610   36.5040   34.3960 O   0  0  0  0  0  0  0  0  0  0  0  0
   35.4220   36.2050   33.4560 O   0  0  0  0  0  0  0  0  0  0  0  0
   34.5690   36.0670   32.3270 C   0  0  0  0  0  0  0  0  0  0  0  0
   37.0020   39.1550   29.7910 C   0  0  0  0  0  0  0  0  0  0  0  0
   39.2270   38.9070   29.0560 C   0  0  0  0  0  0  0  0  0  0  0  0
   32.8920   35.3980   33.8900 C   0  0  0  0  0  0  0  0  0  0  0  0
  1  6  2  0
  3  2  1  0
  3 12  1  0
  4 13  1  0
  4  6  1  0
  6  2  1  0
  7 14  1  0
  7  8  2  0
  8 13  1  0
  9 15  1  0
 12  9  1  0
 12 11  1  0
 14  4  2  0
 15 10  2  0
 15  5  1  0
M  END
$$$$

     RDKit          3D

 12 12  0  0  0  0  0  0  0  0999 V2000
   39.0920   36.6710   29.8180 N   0  0  0  0  0  0  0  0  0  0  0  0
   40.6470   38.6240   28.7780 N   0  0  0  0  0  0  0  0  0  0  0  0
   33.5800   38.6870   30.8710 N   0  0  0  0  0  0  0  0  0  0  0  0
   36.2810   39.4330   30.7060 C   0  0  0  0  0  0  0  0  0  0  0  0
   36.9930   37.1510   30.6350 C   0  0  0  0  0  0  0  0  0  0  0  0
   34.6540   37.7890   31.0790 C   0  0  0  0  0  0  0  0  0  0  0  0
   37.4150   39.8720   30.0640 C   0  0  0  0  0  0  0  0  0  0  0  0
   36.0900   38.0600   30.8620 C   0  0  0  0  0  0  0  0  0  0  0  0
   38.4430   38.9560   29.7970 C   0  0  0  0  0  0  0  0  0  0  0  0
   39.6750   40.6840   28.8770 O   0  0  0  0  0  0  0  0  0  0  0  0
   38.2060   37.6240   30.0560 C   0  0  0  0  0  0  0  0  0  0  0  0
   39.7100   39.4570   29.2360 C   0  0  0  0  0  0  0  0  0  0  0  0
  1 11  1  0
  2 12  1  0
  3  6  1  0
  4  8  1  0
  5  8  2  0
  7  4  2  0
  8  6  1  0
  9 11  2  0
  9  7  1  0
 10 12  2  0
 11  5  1  0
 12  9  1  0
M  END
$$$$

     RDKit          3D

 14 13  0  0  0  0  0  0  0  0999 V2000
   40.9180   38.6590   29.7070 C   0  0  0  0  0  0  0  0  0  0  0  0
   39.1740   40.8440   30.3230 C   0  0  0  0  0  0  0  0  0  0  0  0
   37.7180   38.6970   29.7910 C   0  0  0  0  0  0  0  0  0  0  0  0
   41.8700   39.5670   27.0850 N   0  0  0  0  0  0  0  0  0  0  0  0
   39.8390   38.4930   30.7650 C   0  0  0  0  0  0  0  0  0  0  0  0
   37.7450   37.4160   30.2730 O   0  0  0  0  0  0  0  0  0  0  0  0
   40.2780   41.4330   27.1960 C   0  0  0  0  0  0  0  0  0  0  0  0
   36.3490   39.1600   29.7320 C   0  0  0  0  0  0  0  0  0  0  0  0
   41.0950   40.4040   27.9600 C   0  0  0  0  0  0  0  0  0  0  0  0
   35.3980   38.3100   29.5330 O   0  0  0  0  0  0  0  0  0  0  0  0
   36.0770   40.3770   30.0170 O   0  0  0  0  0  0  0  0  0  0  0  0
   40.4730   39.4080   28.6830 C   0  0  0  0  0  0  0  0  0  0  0  0
   41.1660   42.3280   26.5190 O   0  0  0  0  0  0  0  0  0  0  0  0
   38.7120   39.4340   30.2190 C   0  0  0  0  0  0  0  0  0  0  0  0
  1  5  1  0
  3 14  1  0
  3  6  1  0
  7  9  1  0
  8  3  1  0
  8 11  1  0
  9  4  1  0
  9 12  1  0
 10  8  2  0
 12  1  1  0
 13  7  1  0
 14  2  1  0
 14  5  1  0
M  END
$$$$

     RDKit          3D

 21 22  0  0  0  0  0  0  0  0999 V2000
   36.2390   41.2840   27.8460 C   0  0  0  0  0  0  0  0  0  0  0  0
   37.0720   36.8760   31.4090 C   0  0  0  0  0  0  0  0  0  0  0  0
   39.3980   41.3790   30.4310 C   0  0  0  0  0  0  0  0  0  0  0  0
   40.3570   42.1580   30.7060 O   0  0  0  0  0  0  0  0  0  0  0  0
   36.6630   34.3030   31.5630 C   0  0  0  0  0  0  0  0  0  0  0  0
   38.2490   37.7250   31.4530 C   0  0  0  0  0  0  0  0  0  0  0  0
   38.5440   38.9010   30.7480 C   0  0  0  0  0  0  0  0  0  0  0  0
   37.0740   41.6310   28.6950 C   0  0  0  0  0  0  0  0  0  0  0  0
   39.0130   32.9520   34.6190 O   0  0  0  0  0  0  0  0  0  0  0  0
   37.4010   35.5860   31.8950 N   0  0  0  0  0  0  0  0  0  0  0  0
   39.6280   41.4330   27.8710 C   0  0  0  0  0  0  0  0  0  0  0  0
   38.5080   35.8800   32.7190 C   0  0  0  0  0  0  0  0  0  0  0  0
   39.0600   37.2200   32.4100 N   0  0  0  0  0  0  0  0  0  0  0  0
   38.9220   35.2090   33.8190 C   0  0  0  0  0  0  0  0  0  0  0  0
   38.2080   39.3690   29.2550 S   0  0  0  0  0  0  0  0  0  0  0  0
   40.3350   42.5460   28.1840 O   0  0  0  0  0  0  0  0  0  0  0  0
   35.6560   37.2610   30.9990 C   0  0  0  0  0  0  0  0  0  0  0  0
   39.2650   34.0020   33.9000 N   0  0  0  0  0  0  0  0  0  0  0  0
   38.7410   40.3100   31.7170 S   0  0  0  0  0  0  0  0  0  0  0  0
   39.1200   36.2500   35.1480 S   0  0  0  0  0  0  0  0  0  0  0  0
   38.6120   41.0920   29.1290 C   0  0  0  0  0  0  0  0  0  0  0  0
  1  8  2  0
  2 17  1  0
  2  6  1  0
  2 10  1  0
  3  4  2  0
  3 19  1  0
  5 10  1  0
  6 13  1  0
  7 15  1  0
  7  6  1  0
  7 19  1  0
  8 21  1  0
 10 12  1  0
 11 16  1  0
 12 14  1  0
 13 12  1  0
 14 18  1  0
 14 20  2  0
 18  9  1  0
 21 11  1  0
 21 15  1  0
 21  3  1  0
M  END
$$$$

     RDKit          3D

 19 19  0  0  0  0  0  0  0  0999 V2000
   39.6740   40.4890   30.1680 O   0  0  0  0  0  0  0  0  0  0  0  0
   37.5510   39.6540   30.8920 C   0  0  0  0  0  0  0  0  0  0  0  0
   41.9910   42.6180   29.1680 S   0  0  0  0  0  0  0  0  0  0  0  0
   38.4870   35.8770   31.1370 C   0  0  0  0  0  0  0  0  0  0  0  0
   37.4750   37.0420   31.2310 C   0  0  0  0  0  0  0  0  0  0  0  0
   39.5090   38.4940   31.2340 O   0  0  0  0  0  0  0  0  0  0  0  0
   39.8960   39.1940   30.1110 C   0  0  0  0  0  0  0  0  0  0  0  0
   36.2100   36.6710   31.3670 C   0  0  0  0  0  0  0  0  0  0  0  0
   38.1270   38.3620   31.3880 C   0  0  0  0  0  0  0  0  0  0  0  0
   33.5900   37.0000   31.4820 C   0  0  0  0  0  0  0  0  0  0  0  0
   35.1090   37.4950   31.3880 C   0  0  0  0  0  0  0  0  0  0  0  0
   35.2790   38.8130   31.1700 C   0  0  0  0  0  0  0  0  0  0  0  0
   41.5170   41.0890   31.9970 C   0  0  0  0  0  0  0  0  0  0  0  0
   41.8770   41.2760   30.3680 C   0  0  0  0  0  0  0  0  0  0  0  0
   42.7680   39.8080   28.6680 O   0  0  0  0  0  0  0  0  0  0  0  0
   42.1320   40.0050   29.8710 C   0  0  0  0  0  0  0  0  0  0  0  0
   41.2750   39.0190   30.2440 O   0  0  0  0  0  0  0  0  0  0  0  0
   39.3550   38.6440   28.8490 C   0  0  0  0  0  0  0  0  0  0  0  0
   36.3570   39.2770   31.1060 C   0  0  0  0  0  0  0  0  0  0  0  0
  2 19  1  0
  2  9  1  0
  3 14  1  0
  5  4  1  0
  5  8  1  0
  5  9  1  0
  7 18  1  0
  7  1  1  0
  7 17  1  0
  7  6  1  0
  8 11  1  0
  9  6  1  0
 11 10  1  0
 12 11  2  0
 14 13  1  0
 15 16  2  0
 16 17  1  0
 16 14  1  0
 19 12  1  0
M  END
$$$$

     RDKit          3D

  7  6  0  0  0  0  0  0  0  0999 V2000
   41.9410   40.8280   27.6570 O   0  0  0  0  0  0  0  0  0  0  0  0
   42.0860   41.6410   28.8190 N   0  0  0  0  0  0  0  0  0  0  0  0
   38.7850   39.0400   27.9460 C   0  0  0  0  0  0  0  0  0  0  0  0
   41.1510   39.7000   27.9410 C   0  0  0  0  0  0  0  0  0  0  0  0
   39.3950   41.1770   28.7930 O   0  0  0  0  0  0  0  0  0  0  0  0
   39.7280   40.0810   28.2780 C   0  0  0  0  0  0  0  0  0  0  0  0
   41.6870   38.6270   28.6770 O   0  0  0  0  0  0  0  0  0  0  0  0
  1  4  1  0
  1  2  1  0
  3  6  1  0
  4  6  1  0
  4  7  2  0
  6  5  2  0
M  END
$$$$

     RDKit          3D

 21 21  0  0  0  0  0  0  0  0999 V2000
   34.2610   34.7000   34.0110 C   0  0  0  0  0  0  0  0  0  0  0  0
   37.8260   36.8900   32.2830 C   0  0  0  0  0  0  0  0  0  0  0  0
   39.8000   35.6780   31.4400 C   0  0  0  0  0  0  0  0  0  0  0  0
   30.1900   35.5580   34.0830 S   0  0  0  0  0  0  0  0  0  0  0  0
   34.7770   34.4270   35.0640 F   0  0  0  0  0  0  0  0  0  0  0  0
   35.0930   35.2180   32.9060 C   0  0  0  0  0  0  0  0  0  0  0  0
   36.6050   36.4390   31.4720 C   0  0  0  0  0  0  0  0  0  0  0  0
   38.6500   37.6990   31.4300 O   0  0  0  0  0  0  0  0  0  0  0  0
   41.8330   40.8050   28.2450 C   0  0  0  0  0  0  0  0  0  0  0  0
   35.4790   36.3050   32.4050 N   0  0  0  0  0  0  0  0  0  0  0  0
   39.7600   37.0590   31.0110 N   0  0  0  0  0  0  0  0  0  0  0  0
   32.7650   34.8420   34.4210 C   0  0  0  0  0  0  0  0  0  0  0  0
   41.5640   38.4900   29.4640 C   0  0  0  0  0  0  0  0  0  0  0  0
   42.2370   39.8530   29.3020 C   0  0  0  0  0  0  0  0  0  0  0  0
   41.0150   39.7780   31.8770 O   0  0  0  0  0  0  0  0  0  0  0  0
   32.3280   35.0740   35.9010 C   0  0  0  0  0  0  0  0  0  0  0  0
   41.9440   40.1720   31.7390 C   0  0  0  0  0  0  0  0  0  0  0  0
   35.7710   34.1480   32.5340 O   0  0  0  0  0  0  0  0  0  0  0  0
   41.9810   40.8220   30.4060 C   0  0  0  0  0  0  0  0  0  0  0  0
   40.8240   37.7350   30.3250 C   0  0  0  0  0  0  0  0  0  0  0  0
   31.4060   34.5700   34.8080 C   0  0  0  0  0  0  0  0  0  0  0  0
  1  5  1  0
  6  1  1  0
  7  2  1  0
  7 10  1  0
  8  2  1  0
 10  6  1  0
 11  8  1  0
 11  3  1  0
 12  1  1  0
 12 21  1  0
 12 16  1  0
 13 20  1  0
 14  9  1  0
 14 13  1  0
 14 19  1  0
 17 15  1  0
 18  6  2  0
 19 17  1  0
 20 11  1  0
 21  4  1  0
 21 16  1  0
M  END
$$$$

     RDKit          3D

  9  9  0  0  0  0  0  0  0  0999 V2000
   39.1400   39.7270   28.2780 C   0  0  0  0  0  0  0  0  0  0  0  0
   43.3890   40.5800   29.8810 S   0  0  0  0  0  0  0  0  0  0  0  0
   38.8400   43.1400   28.7980 O   0  0  0  0  0  0  0  0  0  0  0  0
   41.4180   38.9580   28.7990 C   0  0  0  0  0  0  0  0  0  0  0  0
   38.7620   42.1560   28.0820 C   0  0  0  0  0  0  0  0  0  0  0  0
   39.5740   41.0470   28.5080 C   0  0  0  0  0  0  0  0  0  0  0  0
   40.7830   41.2670   29.2940 C   0  0  0  0  0  0  0  0  0  0  0  0
   41.7630   40.2770   29.2230 C   0  0  0  0  0  0  0  0  0  0  0  0
   40.0720   38.6890   28.4670 C   0  0  0  0  0  0  0  0  0  0  0  0
  1  9  2  0
  1  6  1  0
  4  8  2  0
  5  6  1  0
  5  3  1  0
  6  7  2  0
  8  7  1  0
  8  2  1  0
  9  4  1  0
M  END
$$$$
