
     RDKit          3D

 24 26  0  0  0  0  0  0  0  0999 V2000
   40.9190   37.5880   29.9090 C   0  0  0  0  0  0  0  0  0  0  0  0
   45.0880   36.6200   30.1350 C   0  0  0  0  0  0  0  0  0  0  0  0
   39.7380   36.4730   31.8910 C   0  0  0  0  0  0  0  0  0  0  0  0
   41.4690   38.9180   30.3510 C   0  0  0  0  0  0  0  0  0  0  0  0
   41.6800   35.6430   31.1110 C   0  0  0  0  0  0  0  0  0  0  0  0
   41.1300   40.3420   29.8840 C   0  0  0  0  0  0  0  0  0  0  0  0
   41.0830   38.4660   31.7230 C   0  0  0  0  0  0  0  0  0  0  0  0
   44.8900   37.2630   32.0150 C   0  0  0  0  0  0  0  0  0  0  0  0
   31.5600   35.0610   32.2950 Cl  0  0  0  0  0  0  0  0  0  0  0  0
   40.9220   36.9740   31.2200 N   0  0  0  0  0  0  0  0  0  0  0  0
   33.2550   35.4460   32.2460 C   0  0  0  0  0  0  0  0  0  0  0  0
   33.9910   34.8090   31.2740 C   0  0  0  0  0  0  0  0  0  0  0  0
   44.3020   35.4830   30.4890 O   0  0  0  0  0  0  0  0  0  0  0  0
   37.9890   36.4900   33.2230 C   0  0  0  0  0  0  0  0  0  0  0  0
   35.3700   34.9000   31.3160 C   0  0  0  0  0  0  0  0  0  0  0  0
   43.6190   36.6900   32.3440 C   0  0  0  0  0  0  0  0  0  0  0  0
   36.1020   35.3130   32.4380 C   0  0  0  0  0  0  0  0  0  0  0  0
   42.1970   41.3560   30.2450 C   0  0  0  0  0  0  0  0  0  0  0  0
   37.6120   35.3750   32.3650 C   0  0  0  0  0  0  0  0  0  0  0  0
   39.2560   34.8850   31.7430 S   0  0  0  0  0  0  0  0  0  0  0  0
   43.1120   35.9150   31.1590 C   0  0  0  0  0  0  0  0  0  0  0  0
   39.0340   37.1850   32.7560 C   0  0  0  0  0  0  0  0  0  0  0  0
   33.9280   36.1030   33.2670 C   0  0  0  0  0  0  0  0  0  0  0  0
   35.3070   35.9970   33.3680 C   0  0  0  0  0  0  0  0  0  0  0  0
  1  4  1  0
  1 10  1  0
  2 13  1  0
  3 22  1  0
  4  6  1  0
  4  7  1  0
  6 18  1  0
  8 16  1  0
 10  5  1  0
 10  7  1  0
 10  3  1  0
 11  9  1  0
 11 23  1  0
 12 15  1  0
 12 11  2  0
 13 21  1  0
 15 17  2  0
 17 24  1  0
 19 17  1  0
 19 14  1  0
 20  3  1  0
 20 19  1  0
 21  5  1  0
 21 16  1  0
 22 14  1  0
 23 24  2  0
M  END
$$$$

     RDKit          3D

  7  7  0  0  0  0  0  0  0  0999 V2000
   43.2500   37.8710   31.4450 C   0  0  0  0  0  0  0  0  0  0  0  0
   44.2640   37.3160   29.7190 C   0  0  0  0  0  0  0  0  0  0  0  0
   42.8940   37.7030   32.7530 O   0  0  0  0  0  0  0  0  0  0  0  0
   43.3470   36.5870   30.6530 C   0  0  0  0  0  0  0  0  0  0  0  0
   42.3860   35.7610   31.2900 N   0  0  0  0  0  0  0  0  0  0  0  0
   42.6210   38.8470   30.5730 C   0  0  0  0  0  0  0  0  0  0  0  0
   43.8740   38.4370   29.2670 C   0  0  0  0  0  0  0  0  0  0  0  0
  1  3  1  0
  2  4  1  0
  4  5  1  0
  4  1  1  0
  6  1  1  0
  7  2  1  0
  7  6  1  0
M  END
$$$$

     RDKit          3D

 20 23  0  0  0  0  0  0  0  0999 V2000
   42.2440   36.9760   33.1140 C   0  0  0  0  0  0  0  0  0  0  0  0
   37.0470   33.7750   35.9070 C   0  0  0  0  0  0  0  0  0  0  0  0
   40.0030   34.0220   34.9580 O   0  0  0  0  0  0  0  0  0  0  0  0
   35.9910   34.1440   38.5080 C   0  0  0  0  0  0  0  0  0  0  0  0
   38.1580   35.4400   34.5880 C   0  0  0  0  0  0  0  0  0  0  0  0
   39.3690   36.0370   34.5120 N   0  0  0  0  0  0  0  0  0  0  0  0
   37.9750   34.8470   35.4730 C   0  0  0  0  0  0  0  0  0  0  0  0
   36.4400   33.0320   39.2740 O   0  0  0  0  0  0  0  0  0  0  0  0
   42.3340   34.7780   32.6290 C   0  0  0  0  0  0  0  0  0  0  0  0
   43.6630   36.7200   32.5210 C   0  0  0  0  0  0  0  0  0  0  0  0
   35.8500   33.9740   34.9660 O   0  0  0  0  0  0  0  0  0  0  0  0
   43.7790   35.2060   32.3110 C   0  0  0  0  0  0  0  0  0  0  0  0
   42.0920   38.4690   33.0720 C   0  0  0  0  0  0  0  0  0  0  0  0
   39.6600   37.0070   33.5590 C   0  0  0  0  0  0  0  0  0  0  0  0
   38.5190   37.5570   33.0440 O   0  0  0  0  0  0  0  0  0  0  0  0
   36.9040   34.3170   37.3590 C   0  0  0  0  0  0  0  0  0  0  0  0
   39.1060   34.9100   34.8260 C   0  0  0  0  0  0  0  0  0  0  0  0
   42.0850   35.6290   33.8630 C   0  0  0  0  0  0  0  0  0  0  0  0
   37.2840   35.5960   37.4440 O   0  0  0  0  0  0  0  0  0  0  0  0
   40.8150   37.2320   32.7730 C   0  0  0  0  0  0  0  0  0  0  0  0
  1 18  1  0
  2 11  1  0
  2 16  1  0
  4  8  1  0
  5  6  1  0
  5 17  1  0
  5  7  1  0
  6 17  1  0
  7  2  1  0
  9 18  1  0
 10  1  1  0
 12 10  1  0
 12  9  1  0
 13  1  1  0
 14  6  1  0
 15 14  2  0
 16 19  1  0
 16  4  1  0
 17  3  1  0
 17  7  1  0
 20 13  1  0
 20  1  1  0
 20 14  1  0
M  END
$$$$

     RDKit          3D

 33 34  0  0  0  0  0  0  0  0999 V2000
   29.5350   34.5870   37.4540 C   0  0  0  0  0  0  0  0  0  0  0  0
   45.1130   37.6730   29.9150 N   0  0  0  0  0  0  0  0  0  0  0  0
   39.7140   35.2880   35.1830 C   0  0  0  0  0  0  0  0  0  0  0  0
   42.3190   36.2590   33.4460 C   0  0  0  0  0  0  0  0  0  0  0  0
   44.2550   38.3760   30.6510 C   0  0  0  0  0  0  0  0  0  0  0  0
   42.6660   37.4410   34.3220 C   0  0  0  0  0  0  0  0  0  0  0  0
   36.4630   34.3610   34.4140 C   0  0  0  0  0  0  0  0  0  0  0  0
   42.0320   34.7750   33.6620 C   0  0  0  0  0  0  0  0  0  0  0  0
   34.2550   35.1620   36.0520 O   0  0  0  0  0  0  0  0  0  0  0  0
   39.8830   33.5240   33.2140 C   0  0  0  0  0  0  0  0  0  0  0  0
   36.3080   33.4110   35.6770 C   0  0  0  0  0  0  0  0  0  0  0  0
   37.7310   34.4710   33.8340 C   0  0  0  0  0  0  0  0  0  0  0  0
   42.0640   37.9250   31.6980 C   0  0  0  0  0  0  0  0  0  0  0  0
   30.8850   34.6350   38.1560 C   0  0  0  0  0  0  0  0  0  0  0  0
   42.9310   37.1820   35.8030 C   0  0  0  0  0  0  0  0  0  0  0  0
   44.0870   39.7250   30.1840 C   0  0  0  0  0  0  0  0  0  0  0  0
   41.1560   34.2270   32.4930 C   0  0  0  0  0  0  0  0  0  0  0  0
   38.8240   33.3310   35.7550 C   0  0  0  0  0  0  0  0  0  0  0  0
   37.5510   32.5060   35.7780 C   0  0  0  0  0  0  0  0  0  0  0  0
   44.5960   38.2730   32.4150 O   0  0  0  0  0  0  0  0  0  0  0  0
   41.9120   38.6390   34.2380 C   0  0  0  0  0  0  0  0  0  0  0  0
   35.3070   35.0240   34.0270 C   0  0  0  0  0  0  0  0  0  0  0  0
   31.8820   35.5150   36.1210 C   0  0  0  0  0  0  0  0  0  0  0  0
   30.6040   35.0860   35.5240 C   0  0  0  0  0  0  0  0  0  0  0  0
   39.0800   34.1070   34.4630 C   0  0  0  0  0  0  0  0  0  0  0  0
   42.0620   34.4190   31.1730 C   0  0  0  0  0  0  0  0  0  0  0  0
   32.0000   34.8680   37.4970 C   0  0  0  0  0  0  0  0  0  0  0  0
   41.3700   36.8600   32.4240 C   0  0  0  0  0  0  0  0  0  0  0  0
   35.1430   35.5840   32.8130 N   0  0  0  0  0  0  0  0  0  0  0  0
   33.9640   35.2730   34.7700 C   0  0  0  0  0  0  0  0  0  0  0  0
   29.5130   35.0230   36.5460 N   0  0  0  0  0  0  0  0  0  0  0  0
   43.6130   37.8300   31.8060 C   0  0  0  0  0  0  0  0  0  0  0  0
   32.7160   35.9670   34.5310 C   0  0  0  0  0  0  0  0  0  0  0  0
  1 14  1  0
  2  5  2  0
  4 28  1  0
  4  8  1  0
  4  6  1  0
  5 32  1  0
  6 15  1  0
  7 22  1  0
  7 11  1  0
 10 25  1  0
 11 19  1  0
 12  7  1  0
 12 25  1  0
 13 32  1  0
 13 28  1  0
 16  5  1  0
 17 26  1  0
 17 10  1  0
 17  8  1  0
 18 19  1  0
 21  6  1  0
 22 29  1  0
 22 30  1  0
 23 33  1  0
 23 27  1  0
 24 23  1  0
 24 31  1  0
 25  3  1  0
 25 18  1  0
 27 14  1  0
 30  9  1  0
 31  1  1  0
 32 20  1  0
 33 30  1  0
M  END
$$$$

     RDKit          3D

 31 32  0  0  0  0  0  0  0  0999 V2000
   47.4620   38.1270   32.0260 O   0  0  0  0  0  0  0  0  0  0  0  0
   41.5920   37.1490   31.9480 C   0  0  0  0  0  0  0  0  0  0  0  0
   41.1460   38.4880   32.1090 C   0  0  0  0  0  0  0  0  0  0  0  0
   30.4690   35.8270   33.8940 C   0  0  0  0  0  0  0  0  0  0  0  0
   32.2950   34.1370   35.0130 C   0  0  0  0  0  0  0  0  0  0  0  0
   33.3980   35.0580   33.2540 O   0  0  0  0  0  0  0  0  0  0  0  0
   30.4860   33.0840   38.0840 O   0  0  0  0  0  0  0  0  0  0  0  0
   38.5590   37.4300   32.8610 O   0  0  0  0  0  0  0  0  0  0  0  0
   35.7820   33.7630   33.9310 C   0  0  0  0  0  0  0  0  0  0  0  0
   45.8040   38.4090   30.5080 O   0  0  0  0  0  0  0  0  0  0  0  0
   30.8690   33.6760   37.0200 C   0  0  0  0  0  0  0  0  0  0  0  0
   37.4610   35.1460   33.7950 C   0  0  0  0  0  0  0  0  0  0  0  0
   43.4020   35.5010   31.0080 C   0  0  0  0  0  0  0  0  0  0  0  0
   36.4630   35.8000   32.9990 N   0  0  0  0  0  0  0  0  0  0  0  0
   40.4770   36.1410   31.7670 C   0  0  0  0  0  0  0  0  0  0  0  0
   31.0310   34.9550   34.7940 C   0  0  0  0  0  0  0  0  0  0  0  0
   33.4110   34.2550   34.1920 C   0  0  0  0  0  0  0  0  0  0  0  0
   43.8160   37.8650   31.6320 C   0  0  0  0  0  0  0  0  0  0  0  0
   30.1620   34.4900   36.1230 C   0  0  0  0  0  0  0  0  0  0  0  0
   36.9270   33.7180   34.0540 C   0  0  0  0  0  0  0  0  0  0  0  0
   45.1820   37.5790   31.3150 C   0  0  0  0  0  0  0  0  0  0  0  0
   46.2430   38.6440   31.4610 C   0  0  0  0  0  0  0  0  0  0  0  0
   39.5340   33.8730   33.0780 O   0  0  0  0  0  0  0  0  0  0  0  0
   46.0340   39.8740   32.1010 O   0  0  0  0  0  0  0  0  0  0  0  0
   43.3670   39.2200   31.6890 C   0  0  0  0  0  0  0  0  0  0  0  0
   38.7030   34.9840   33.0030 C   0  0  0  0  0  0  0  0  0  0  0  0
   39.5060   36.2890   32.9300 C   0  0  0  0  0  0  0  0  0  0  0  0
   42.8880   36.8730   31.4850 C   0  0  0  0  0  0  0  0  0  0  0  0
   34.5220   33.5550   34.2520 N   0  0  0  0  0  0  0  0  0  0  0  0
   42.0470   39.5360   31.9310 C   0  0  0  0  0  0  0  0  0  0  0  0
   32.3860   33.0820   36.3700 S   0  0  0  0  0  0  0  0  0  0  0  0
  2  3  1  0
  4 16  2  0
  5 17  1  0
  5 31  1  0
  6 17  2  0
  9 20  1  0
  9 29  1  0
 10 21  1  0
 10 22  1  0
 11  7  2  0
 12 14  1  0
 12 20  1  0
 13 28  1  0
 15  2  1  0
 15 27  1  0
 16  5  1  0
 16 19  1  0
 17 29  1  0
 18 25  2  0
 19 11  1  0
 21 18  1  0
 22  1  2  0
 22 24  1  0
 25 30  1  0
 26 23  1  0
 26 12  1  0
 27  8  1  0
 27 26  1  0
 28 18  1  0
 28  2  2  0
 30  3  2  0
 31 11  1  0
M  END
$$$$

     RDKit          3D

 22 24  0  0  0  0  0  0  0  0999 V2000
   40.6640   38.3300   32.2730 C   0  0  0  0  0  0  0  0  0  0  0  0
   39.2130   36.6240   34.5500 C   0  0  0  0  0  0  0  0  0  0  0  0
   38.8390   31.5030   35.6070 N   0  0  0  0  0  0  0  0  0  0  0  0
   37.3490   29.4970   37.5940 N   0  0  0  0  0  0  0  0  0  0  0  0
   36.3300   35.1100   35.5320 C   0  0  0  0  0  0  0  0  0  0  0  0
   36.4060   31.4370   36.6660 C   0  0  0  0  0  0  0  0  0  0  0  0
   40.6110   36.2290   32.6950 C   0  0  0  0  0  0  0  0  0  0  0  0
   37.2780   33.1040   34.9660 C   0  0  0  0  0  0  0  0  0  0  0  0
   39.8400   37.4710   33.3740 C   0  0  0  0  0  0  0  0  0  0  0  0
   37.6940   34.5180   35.3710 C   0  0  0  0  0  0  0  0  0  0  0  0
   35.9960   31.3900   39.2450 S   0  0  0  0  0  0  0  0  0  0  0  0
   41.4080   37.1010   31.5880 C   0  0  0  0  0  0  0  0  0  0  0  0
   42.4110   39.8900   31.3240 C   0  0  0  0  0  0  0  0  0  0  0  0
   37.0740   30.8800   37.9560 C   0  0  0  0  0  0  0  0  0  0  0  0
   43.0820   38.8510   30.5740 C   0  0  0  0  0  0  0  0  0  0  0  0
   39.4770   38.7360   34.0130 O   0  0  0  0  0  0  0  0  0  0  0  0
   38.7260   35.2170   34.4690 C   0  0  0  0  0  0  0  0  0  0  0  0
   38.9930   34.3800   33.2260 C   0  0  0  0  0  0  0  0  0  0  0  0
   41.2330   39.7150   32.1140 C   0  0  0  0  0  0  0  0  0  0  0  0
   39.7050   35.1520   32.1050 C   0  0  0  0  0  0  0  0  0  0  0  0
   37.6170   32.1670   36.0760 C   0  0  0  0  0  0  0  0  0  0  0  0
   42.7500   37.4230   30.9280 C   0  0  0  0  0  0  0  0  0  0  0  0
  1  9  1  0
  6 14  1  0
  7 20  1  0
  7  9  1  0
  8 10  1  0
  8 21  1  0
  9 16  1  0
  9  2  1  0
 10  5  1  0
 12  1  2  0
 12  7  1  0
 13 19  2  0
 14  4  1  0
 14 11  1  0
 15 22  2  0
 15 13  1  0
 17  2  1  0
 17 10  1  0
 18 17  1  0
 19  1  1  0
 20 18  1  0
 21  3  1  0
 21  6  1  0
 22 12  1  0
M  END
$$$$

     RDKit          3D

  7  6  0  0  0  0  0  0  0  0999 V2000
   45.0910   37.1720   30.8610 C   0  0  0  0  0  0  0  0  0  0  0  0
   43.4000   35.4830   31.0490 O   0  0  0  0  0  0  0  0  0  0  0  0
   42.5360   39.6230   30.4150 C   0  0  0  0  0  0  0  0  0  0  0  0
   45.1600   38.8430   30.1230 S   0  0  0  0  0  0  0  0  0  0  0  0
   43.8160   36.4750   30.3280 C   0  0  0  0  0  0  0  0  0  0  0  0
   43.8140   39.9060   29.6530 C   0  0  0  0  0  0  0  0  0  0  0  0
   43.6490   36.4850   29.0560 O   0  0  0  0  0  0  0  0  0  0  0  0
  4  1  1  0
  5  1  1  0
  5  2  1  0
  6  4  1  0
  6  3  1  0
  7  5  2  0
M  END
$$$$

     RDKit          3D

 10 11  0  0  0  0  0  0  0  0999 V2000
   43.4160   40.1930   30.2600 C   0  0  0  0  0  0  0  0  0  0  0  0
   44.3480   40.7770   31.3130 C   0  0  0  0  0  0  0  0  0  0  0  0
   42.6620   36.2590   30.7960 C   0  0  0  0  0  0  0  0  0  0  0  0
   43.5480   37.5060   30.9750 C   0  0  0  0  0  0  0  0  0  0  0  0
   41.1530   38.0840   31.2180 C   0  0  0  0  0  0  0  0  0  0  0  0
   41.3140   36.7350   30.6020 C   0  0  0  0  0  0  0  0  0  0  0  0
   43.1350   38.6930   30.4290 C   0  0  0  0  0  0  0  0  0  0  0  0
   43.0850   35.0710   30.8460 O   0  0  0  0  0  0  0  0  0  0  0  0
   42.5560   38.4180   31.5880 N   0  0  0  0  0  0  0  0  0  0  0  0
   44.5080   40.1370   33.0050 S   0  0  0  0  0  0  0  0  0  0  0  0
  1  2  1  0
  2 10  1  0
  3  8  2  0
  4  3  1  0
  4  9  1  0
  6  3  1  0
  6  5  1  0
  7  1  1  0
  7  4  1  0
  7  9  1  0
  9  5  1  0
M  END
$$$$

     RDKit          3D

  8  7  0  0  0  0  0  0  0  0999 V2000
   41.7920   38.3110   30.0540 N   0  0  0  0  0  0  0  0  0  0  0  0
   43.5460   39.1430   32.8510 C   0  0  0  0  0  0  0  0  0  0  0  0
   42.1560   37.1790   32.5450 N   0  0  0  0  0  0  0  0  0  0  0  0
   42.1960   36.3800   31.4540 C   0  0  0  0  0  0  0  0  0  0  0  0
   42.7300   35.2590   31.5420 O   0  0  0  0  0  0  0  0  0  0  0  0
   43.5080   37.6450   32.7540 C   0  0  0  0  0  0  0  0  0  0  0  0
   43.8230   39.3950   34.2140 O   0  0  0  0  0  0  0  0  0  0  0  0
   42.0620   37.0900   30.1300 C   0  0  0  0  0  0  0  0  0  0  0  0
  1  8  2  0
  2  7  1  0
  3  6  1  0
  4  5  2  0
  4  3  1  0
  6  2  1  0
  8  4  1  0
M  END
$$$$

     RDKit          3D

 10 10  0  0  0  0  0  0  0  0999 V2000
   39.2960   35.4400   32.0870 C   0  0  0  0  0  0  0  0  0  0  0  0
   38.7620   36.5980   32.3950 C   0  0  0  0  0  0  0  0  0  0  0  0
   40.8020   37.0980   32.0940 N   0  0  0  0  0  0  0  0  0  0  0  0
   42.0180   39.1890   32.6530 C   0  0  0  0  0  0  0  0  0  0  0  0
   37.2980   36.6330   32.4240 O   0  0  0  0  0  0  0  0  0  0  0  0
   41.3410   39.9190   31.4090 C   0  0  0  0  0  0  0  0  0  0  0  0
   39.6140   37.5910   32.4900 C   0  0  0  0  0  0  0  0  0  0  0  0
   41.5840   34.8030   32.0230 N   0  0  0  0  0  0  0  0  0  0  0  0
   42.0960   37.7750   32.2110 C   0  0  0  0  0  0  0  0  0  0  0  0
   40.6500   35.7690   32.0490 C   0  0  0  0  0  0  0  0  0  0  0  0
  1  2  1  0
  2  5  1  0
  2  7  1  0
  3  9  1  0
  3  7  1  0
  6  4  1  0
  9  4  1  0
 10  8  1  0
 10  1  1  0
 10  3  1  0
M  END
$$$$

     RDKit          3D

 11 11  0  0  0  0  0  0  0  0999 V2000
   40.1380   35.6650   33.3080 O   0  0  0  0  0  0  0  0  0  0  0  0
   41.0670   36.8640   31.4080 C   0  0  0  0  0  0  0  0  0  0  0  0
   41.0450   38.1480   32.1240 C   0  0  0  0  0  0  0  0  0  0  0  0
   42.0180   38.5820   32.6570 O   0  0  0  0  0  0  0  0  0  0  0  0
   41.8540   36.1240   31.2080 C   0  0  0  0  0  0  0  0  0  0  0  0
   37.8690   36.8680   32.6300 O   0  0  0  0  0  0  0  0  0  0  0  0
   42.9660   35.0650   31.5460 S   0  0  0  0  0  0  0  0  0  0  0  0
   38.9200   37.2870   32.1510 C   0  0  0  0  0  0  0  0  0  0  0  0
   40.0250   36.3960   32.2860 C   0  0  0  0  0  0  0  0  0  0  0  0
   39.6950   38.4930   32.0090 O   0  0  0  0  0  0  0  0  0  0  0  0
   43.3540   35.3330   33.0240 O   0  0  0  0  0  0  0  0  0  0  0  0
  2  5  1  0
  2  3  1  0
  2  9  1  0
  3  4  2  0
  5  7  1  0
  7 11  2  0
  8  9  1  0
  8  6  2  0
  9  1  2  0
 10  3  1  0
 10  8  1  0
M  END
$$$$

     RDKit          3D

  7  6  0  0  0  0  0  0  0  0999 V2000
   43.3360   38.3660   33.6580 O   0  0  0  0  0  0  0  0  0  0  0  0
   43.0850   37.7030   32.5270 C   0  0  0  0  0  0  0  0  0  0  0  0
   45.0710   36.0390   30.7330 O   0  0  0  0  0  0  0  0  0  0  0  0
   43.8910   37.9750   31.2780 C   0  0  0  0  0  0  0  0  0  0  0  0
   45.0940   37.4700   31.2270 C   0  0  0  0  0  0  0  0  0  0  0  0
   42.4610   36.5890   32.5750 O   0  0  0  0  0  0  0  0  0  0  0  0
   45.9500   37.2280   32.5490 O   0  0  0  0  0  0  0  0  0  0  0  0
  2  6  2  0
  2  1  1  0
  3  5  1  0
  4  2  1  0
  5  4  1  0
  5  7  1  0
M  END
$$$$

     RDKit          3D

  6  6  0  0  0  0  0  0  0  0999 V2000
   44.5120   37.2110   30.7570 O   0  0  0  0  0  0  0  0  0  0  0  0
   43.1890   37.4100   30.6520 C   0  0  0  0  0  0  0  0  0  0  0  0
   43.1430   37.0830   32.1430 C   0  0  0  0  0  0  0  0  0  0  0  0
   43.1930   35.7720   32.4690 O   0  0  0  0  0  0  0  0  0  0  0  0
   41.9630   38.3570   30.4930 N   0  0  0  0  0  0  0  0  0  0  0  0
   43.4840   37.0780   29.2700 N   0  0  0  0  0  0  0  0  0  0  0  0
  2  5  1  0
  2  1  1  0
  2  3  1  0
  3  4  1  0
  6  2  1  0
  6  1  1  0
M  END
$$$$

     RDKit          3D

 20 22  0  0  0  0  0  0  0  0999 V2000
   40.6090   34.5840   33.3240 N   0  0  0  0  0  0  0  0  0  0  0  0
   41.9240   34.2670   32.8580 N   0  0  0  0  0  0  0  0  0  0  0  0
   39.1070   37.7010   32.4700 N   0  0  0  0  0  0  0  0  0  0  0  0
   35.2060   34.0990   33.4800 C   0  0  0  0  0  0  0  0  0  0  0  0
   44.6860   39.4760   31.2650 N   0  0  0  0  0  0  0  0  0  0  0  0
   43.9540   38.2610   31.4510 C   0  0  0  0  0  0  0  0  0  0  0  0
   44.0900   38.6450   29.9930 C   0  0  0  0  0  0  0  0  0  0  0  0
   38.2390   35.5170   32.6310 C   0  0  0  0  0  0  0  0  0  0  0  0
   37.0400   35.4600   32.4690 N   0  0  0  0  0  0  0  0  0  0  0  0
   37.0090   35.0190   34.6860 O   0  0  0  0  0  0  0  0  0  0  0  0
   34.0830   34.8450   32.9580 C   0  0  0  0  0  0  0  0  0  0  0  0
   40.2320   38.3790   32.3650 C   0  0  0  0  0  0  0  0  0  0  0  0
   40.4010   35.8650   33.0820 C   0  0  0  0  0  0  0  0  0  0  0  0
   36.2370   35.1640   33.5810 C   0  0  0  0  0  0  0  0  0  0  0  0
   42.4820   38.6730   31.5770 C   0  0  0  0  0  0  0  0  0  0  0  0
   39.2280   36.4190   32.7420 C   0  0  0  0  0  0  0  0  0  0  0  0
   42.5510   35.3830   32.4790 C   0  0  0  0  0  0  0  0  0  0  0  0
   43.8160   35.3220   31.9670 N   0  0  0  0  0  0  0  0  0  0  0  0
   41.6550   36.5080   32.7080 C   0  0  0  0  0  0  0  0  0  0  0  0
   41.4920   37.8010   32.3040 C   0  0  0  0  0  0  0  0  0  0  0  0
  2  1  1  0
  3 16  1  0
  4 14  1  0
  5  6  1  0
  6 15  1  0
  7  5  1  0
  7  6  1  0
  8 16  1  0
  9  8  1  0
  9 14  1  0
 11  4  1  0
 12  3  2  0
 13  1  1  0
 14 10  1  0
 15 20  1  0
 16 13  2  0
 17 18  1  0
 17 19  1  0
 17  2  1  0
 19 13  1  0
 20 12  1  0
 20 19  2  0
M  END
$$$$

     RDKit          3D

  8  8  0  0  0  0  0  0  0  0999 V2000
   43.7750   38.7940   31.5550 C   0  0  0  0  0  0  0  0  0  0  0  0
   42.8880   38.0350   32.5610 C   0  0  0  0  0  0  0  0  0  0  0  0
   42.7310   36.8290   30.5750 C   0  0  0  0  0  0  0  0  0  0  0  0
   42.7040   36.7300   32.0680 N   0  0  0  0  0  0  0  0  0  0  0  0
   45.0430   39.0580   32.0150 O   0  0  0  0  0  0  0  0  0  0  0  0
   42.7900   35.6430   30.2610 O   0  0  0  0  0  0  0  0  0  0  0  0
   43.9040   37.7770   30.1970 C   0  0  0  0  0  0  0  0  0  0  0  0
   43.7990   38.7140   29.1200 O   0  0  0  0  0  0  0  0  0  0  0  0
  1  5  1  0
  1  2  1  0
  3  6  1  0
  3  4  1  0
  4  2  1  0
  7  8  1  0
  7  3  1  0
  7  1  1  0
M  END
$$$$

     RDKit          3D

 11 11  0  0  0  0  0  0  0  0999 V2000
   39.1920   34.9450   33.3730 C   0  0  0  0  0  0  0  0  0  0  0  0
   39.4690   35.6550   34.6930 C   0  0  0  0  0  0  0  0  0  0  0  0
   37.5570   33.7880   33.3530 C   0  0  0  0  0  0  0  0  0  0  0  0
   35.3770   33.8280   32.5650 C   0  0  0  0  0  0  0  0  0  0  0  0
   36.4600   33.2990   33.4500 C   0  0  0  0  0  0  0  0  0  0  0  0
   34.3690   35.9010   31.4860 C   0  0  0  0  0  0  0  0  0  0  0  0
   38.9430   33.5690   33.3150 O   0  0  0  0  0  0  0  0  0  0  0  0
   40.5460   35.0560   32.5820 C   0  0  0  0  0  0  0  0  0  0  0  0
   37.5500   35.0220   33.4880 O   0  0  0  0  0  0  0  0  0  0  0  0
   34.2250   35.5360   33.8270 O   0  0  0  0  0  0  0  0  0  0  0  0
   34.7730   35.1420   32.7490 C   0  0  0  0  0  0  0  0  0  0  0  0
  1  9  1  0
  1  2  1  0
  3  5  1  0
  3  9  1  0
  4 11  1  0
  4  5  1  0
  6 11  1  0
  7  3  1  0
  7  1  1  0
  8  1  1  0
 11 10  2  0
M  END
$$$$

     RDKit          3D

  8  8  0  0  0  0  0  0  0  0999 V2000
   42.4960   36.6650   30.4510 C   0  0  0  0  0  0  0  0  0  0  0  0
   42.6990   38.1700   30.3720 C   0  0  0  0  0  0  0  0  0  0  0  0
   42.6250   38.8160   31.7390 C   0  0  0  0  0  0  0  0  0  0  0  0
   43.2220   38.5360   34.0850 C   0  0  0  0  0  0  0  0  0  0  0  0
   43.5720   36.8720   32.5450 C   0  0  0  0  0  0  0  0  0  0  0  0
   43.2940   38.3540   32.6190 N   0  0  0  0  0  0  0  0  0  0  0  0
   42.5530   36.1170   31.8510 C   0  0  0  0  0  0  0  0  0  0  0  0
   44.3820   39.2480   34.6320 C   0  0  0  0  0  0  0  0  0  0  0  0
  1  7  1  0
  2  1  1  0
  2  3  1  0
  3  6  1  0
  4  8  1  0
  5  6  1  0
  6  4  1  0
  7  5  1  0
M  END
$$$$

     RDKit          3D

 12 13  0  0  0  0  0  0  0  0999 V2000
   41.5600   36.8130   31.9010 C   0  0  0  0  0  0  0  0  0  0  0  0
   38.0590   34.5890   33.2380 C   0  0  0  0  0  0  0  0  0  0  0  0
   37.3710   35.5120   32.4770 C   0  0  0  0  0  0  0  0  0  0  0  0
   40.2840   37.3660   31.3660 C   0  0  0  0  0  0  0  0  0  0  0  0
   39.8980   38.5240   30.9660 N   0  0  0  0  0  0  0  0  0  0  0  0
   40.1140   35.4900   32.5510 C   0  0  0  0  0  0  0  0  0  0  0  0
   40.9480   39.5470   30.4680 C   0  0  0  0  0  0  0  0  0  0  0  0
   39.3500   36.4650   31.8410 C   0  0  0  0  0  0  0  0  0  0  0  0
   41.5660   35.5500   32.3300 N   0  0  0  0  0  0  0  0  0  0  0  0
   42.4630   37.2270   32.5280 O   0  0  0  0  0  0  0  0  0  0  0  0
   37.9900   36.5340   31.7970 C   0  0  0  0  0  0  0  0  0  0  0  0
   39.5330   34.6770   33.4160 C   0  0  0  0  0  0  0  0  0  0  0  0
  1  9  1  0
  1 10  2  0
  2 12  1  0
  3  2  2  0
  4  5  1  0
  4  8  1  0
  4  1  1  0
  6 12  2  0
  7  5  1  0
  8  6  1  0
  9  6  1  0
 11  8  2  0
 11  3  1  0
M  END
$$$$

     RDKit          3D

 33 37  0  0  0  0  0  0  0  0999 V2000
   43.3450   37.9750   28.4030 C   0  0  0  0  0  0  0  0  0  0  0  0
   34.7240   30.6360   36.5560 O   0  0  0  0  0  0  0  0  0  0  0  0
   42.4490   37.6700   30.5670 N   0  0  0  0  0  0  0  0  0  0  0  0
   40.6220   36.8880   31.6280 C   0  0  0  0  0  0  0  0  0  0  0  0
   43.1840   40.8060   27.0850 C   0  0  0  0  0  0  0  0  0  0  0  0
   41.3200   38.2950   30.1030 C   0  0  0  0  0  0  0  0  0  0  0  0
   42.2680   39.6720   26.9010 N   0  0  0  0  0  0  0  0  0  0  0  0
   42.2360   41.9120   26.1610 C   0  0  0  0  0  0  0  0  0  0  0  0
   37.0680   33.5560   33.3020 C   0  0  0  0  0  0  0  0  0  0  0  0
   31.2260   31.9650   37.2540 C   0  0  0  0  0  0  0  0  0  0  0  0
   37.2880   35.8410   32.5410 N   0  0  0  0  0  0  0  0  0  0  0  0
   33.4450   31.2730   36.6540 C   0  0  0  0  0  0  0  0  0  0  0  0
   33.1100   31.9060   35.2240 C   0  0  0  0  0  0  0  0  0  0  0  0
   42.1740   38.8330   28.0450 C   0  0  0  0  0  0  0  0  0  0  0  0
   40.1840   37.8790   30.6660 C   0  0  0  0  0  0  0  0  0  0  0  0
   39.4500   36.1200   32.2010 C   0  0  0  0  0  0  0  0  0  0  0  0
   42.0000   36.7390   31.4910 C   0  0  0  0  0  0  0  0  0  0  0  0
   42.0430   39.4000   25.5360 C   0  0  0  0  0  0  0  0  0  0  0  0
   37.6240   32.6130   34.1760 N   0  0  0  0  0  0  0  0  0  0  0  0
   42.0160   42.2330   24.5810 N   0  0  0  0  0  0  0  0  0  0  0  0
   31.0390   31.6620   36.2810 C   0  0  0  0  0  0  0  0  0  0  0  0
   39.5160   34.5100   32.7170 S   0  0  0  0  0  0  0  0  0  0  0  0
   38.1940   36.6690   32.1920 C   0  0  0  0  0  0  0  0  0  0  0  0
   37.8000   34.6690   32.8730 C   0  0  0  0  0  0  0  0  0  0  0  0
   35.6530   33.1750   32.9470 C   0  0  0  0  0  0  0  0  0  0  0  0
   31.8470   31.8500   35.0940 C   0  0  0  0  0  0  0  0  0  0  0  0
   34.3650   31.8910   34.5040 C   0  0  0  0  0  0  0  0  0  0  0  0
   42.3470   41.1810   23.8660 C   0  0  0  0  0  0  0  0  0  0  0  0
   43.0080   40.3890   24.9300 C   0  0  0  0  0  0  0  0  0  0  0  0
   41.4950   39.4660   29.3060 C   0  0  0  0  0  0  0  0  0  0  0  0
   32.0790   30.8300   37.0340 C   0  0  0  0  0  0  0  0  0  0  0  0
   35.3210   31.8900   33.6620 C   0  0  0  0  0  0  0  0  0  0  0  0
   43.7220   38.0410   29.9470 C   0  0  0  0  0  0  0  0  0  0  0  0
  1 33  1  0
  3 17  1  0
  4 16  1  0
  6  3  1  0
  6 15  2  0
  7 18  1  0
  7  5  1  0
  7 14  1  0
  8  5  1  0
  9 19  1  0
 11 24  2  0
 12  2  1  0
 12 31  1  0
 13 12  1  0
 14  1  1  0
 14 30  1  0
 15  4  1  0
 16 22  1  0
 17  4  2  0
 20  8  1  0
 21 10  1  0
 22 24  1  0
 23 16  2  0
 23 11  1  0
 24  9  1  0
 25  9  1  0
 25 32  1  0
 26 13  1  0
 26 21  1  0
 27 13  2  0
 28 20  1  0
 28 29  1  0
 29 18  1  0
 30  6  1  0
 31 10  1  0
 32 27  2  0
 33  3  1  0
M  END
$$$$

     RDKit          3D

 12 11  0  0  0  0  0  0  0  0999 V2000
   39.5030   37.5440   32.6320 O   0  0  0  0  0  0  0  0  0  0  0  0
   38.7290   38.6840   32.5490 C   0  0  0  0  0  0  0  0  0  0  0  0
   37.6160   38.6820   31.5110 C   0  0  0  0  0  0  0  0  0  0  0  0
   40.5160   35.4320   32.6100 C   0  0  0  0  0  0  0  0  0  0  0  0
   41.7240   35.7810   32.5730 N   0  0  0  0  0  0  0  0  0  0  0  0
   42.6060   36.5690   32.8750 C   0  0  0  0  0  0  0  0  0  0  0  0
   39.3340   36.2470   32.5970 C   0  0  0  0  0  0  0  0  0  0  0  0
   40.3030   34.0020   33.0690 C   0  0  0  0  0  0  0  0  0  0  0  0
   42.7990   37.7690   33.0530 C   0  0  0  0  0  0  0  0  0  0  0  0
   37.9820   37.8520   30.4110 O   0  0  0  0  0  0  0  0  0  0  0  0
   40.4120   33.1480   31.8390 C   0  0  0  0  0  0  0  0  0  0  0  0
   42.1010   39.1910   32.6240 C   0  0  0  0  0  0  0  0  0  0  0  0
  2  1  1  0
  3  2  1  0
  4  7  1  0
  4  8  1  0
  5  4  1  0
  5  6  1  0
  6  9  1  0
  7  1  1  0
 10  3  1  0
 11  8  1  0
 12  9  1  0
M  END
$$$$
