
     RDKit          3D

 13 13  0  0  0  0  0  0  0  0999 V2000
   41.6510   41.9720   30.7180 O   0  0  0  0  0  0  0  0  0  0  0  0
   40.1440   37.6090   30.3870 C   0  0  0  0  0  0  0  0  0  0  0  0
   41.4190   40.9770   29.5430 C   0  0  0  0  0  0  0  0  0  0  0  0
   41.5930   39.5820   29.9580 N   0  0  0  0  0  0  0  0  0  0  0  0
   38.0700   39.5650   29.6660 O   0  0  0  0  0  0  0  0  0  0  0  0
   40.3180   38.8910   30.3300 C   0  0  0  0  0  0  0  0  0  0  0  0
   38.7520   42.7900   28.1540 O   0  0  0  0  0  0  0  0  0  0  0  0
   42.3500   41.2120   28.5700 O   0  0  0  0  0  0  0  0  0  0  0  0
   38.6850   40.7930   27.2620 O   0  0  0  0  0  0  0  0  0  0  0  0
   39.3270   39.9200   30.0740 C   0  0  0  0  0  0  0  0  0  0  0  0
   39.0240   41.5810   28.1630 C   0  0  0  0  0  0  0  0  0  0  0  0
   39.9010   41.1990   29.4030 C   0  0  0  0  0  0  0  0  0  0  0  0
   39.9360   36.5730   29.9160 O   0  0  0  0  0  0  0  0  0  0  0  0
  3  4  1  0
  3  1  1  0
  4  6  1  0
  6  2  1  0
  7 11  1  0
  8  3  1  0
  9 11  2  0
 10  5  1  0
 10  6  1  0
 12 11  1  0
 12  3  1  0
 12 10  1  0
 13  2  2  0
M  END
$$$$

     RDKit          3D

  6  5  0  0  0  0  0  0  0  0999 V2000
   40.0280   43.2190   32.8060 N   0  0  0  0  0  0  0  0  0  0  0  0
   41.2950   39.4240   30.0650 C   0  0  0  0  0  0  0  0  0  0  0  0
   41.3980   38.9440   31.5300 C   0  0  0  0  0  0  0  0  0  0  0  0
   41.4280   41.4420   31.8950 C   0  0  0  0  0  0  0  0  0  0  0  0
   41.0270   42.2930   33.0230 C   0  0  0  0  0  0  0  0  0  0  0  0
   41.7740   40.0820   32.4850 C   0  0  0  0  0  0  0  0  0  0  0  0
  1  5  1  0
  2  3  1  0
  3  6  1  0
  4  6  1  0
  4  5  1  0
M  END
$$$$

     RDKit          3D

 30 31  0  0  0  0  0  0  0  0999 V2000
   39.9940   40.8850   32.6650 C   0  0  0  0  0  0  0  0  0  0  0  0
   42.6540   43.5640   32.6880 C   0  0  0  0  0  0  0  0  0  0  0  0
   42.0720   42.3620   32.4730 C   0  0  0  0  0  0  0  0  0  0  0  0
   35.8410   33.2820   33.5670 C   0  0  0  0  0  0  0  0  0  0  0  0
   39.9250   39.8830   33.8650 C   0  0  0  0  0  0  0  0  0  0  0  0
   39.4960   38.0470   31.5720 C   0  0  0  0  0  0  0  0  0  0  0  0
   38.8920   38.7270   33.8610 C   0  0  0  0  0  0  0  0  0  0  0  0
   40.8260   42.4910   34.3850 N   0  0  0  0  0  0  0  0  0  0  0  0
   41.0290   41.9300   33.2100 C   0  0  0  0  0  0  0  0  0  0  0  0
   33.7140   36.6330   31.1650 O   0  0  0  0  0  0  0  0  0  0  0  0
   41.9690   44.0860   34.1980 S   0  0  0  0  0  0  0  0  0  0  0  0
   35.0640   34.4320   33.6250 C   0  0  0  0  0  0  0  0  0  0  0  0
   34.3240   34.6750   35.7730 C   0  0  0  0  0  0  0  0  0  0  0  0
   39.8580   40.5170   35.1100 O   0  0  0  0  0  0  0  0  0  0  0  0
   37.0670   31.9960   32.0170 O   0  0  0  0  0  0  0  0  0  0  0  0
   43.5840   44.2670   31.9110 N   0  0  0  0  0  0  0  0  0  0  0  0
   39.4080   35.3760   31.1180 C   0  0  0  0  0  0  0  0  0  0  0  0
   44.8610   43.1780   31.6470 C   0  0  0  0  0  0  0  0  0  0  0  0
   33.7550   36.1830   32.4920 C   0  0  0  0  0  0  0  0  0  0  0  0
   34.0030   34.5990   34.4790 O   0  0  0  0  0  0  0  0  0  0  0  0
   37.2430   37.9340   33.9110 S   0  0  0  0  0  0  0  0  0  0  0  0
   36.8480   35.5820   32.4870 C   0  0  0  0  0  0  0  0  0  0  0  0
   37.7200   34.3280   32.3170 C   0  0  0  0  0  0  0  0  0  0  0  0
   35.3480   35.4650   32.5930 C   0  0  0  0  0  0  0  0  0  0  0  0
   38.8590   36.7050   30.9760 C   0  0  0  0  0  0  0  0  0  0  0  0
   36.9350   33.1940   32.6980 C   0  0  0  0  0  0  0  0  0  0  0  0
   35.7450   32.3620   34.5800 O   0  0  0  0  0  0  0  0  0  0  0  0
   39.2110   38.5730   32.4620 N   0  0  0  0  0  0  0  0  0  0  0  0
   44.1550   45.5040   32.4520 C   0  0  0  0  0  0  0  0  0  0  0  0
   38.2300   34.3470   30.9240 C   0  0  0  0  0  0  0  0  0  0  0  0
  1  5  1  0
  2 11  1  0
  3  2  2  0
  3  9  1  0
  4 12  2  0
  4 27  1  0
  5 14  1  0
  6 28  1  0
  7  5  1  0
  7 21  1  0
  9  1  1  0
  9  8  1  0
 10 19  1  0
 11  8  1  0
 12 20  1  0
 16 29  1  0
 16  2  1  0
 18 16  1  0
 20 13  1  0
 22 24  1  0
 23 30  1  0
 23 22  1  0
 23 26  1  0
 24 19  1  0
 24 12  1  0
 25 17  1  0
 25  6  1  0
 26 15  1  0
 26  4  1  0
 28  7  1  0
 30 17  1  0
M  END
$$$$

     RDKit          3D

 12 12  0  0  0  0  0  0  0  0999 V2000
   39.3120   40.4390   30.6440 O   0  0  0  0  0  0  0  0  0  0  0  0
   41.8890   38.7690   31.0490 C   0  0  0  0  0  0  0  0  0  0  0  0
   40.7630   38.6900   30.0800 C   0  0  0  0  0  0  0  0  0  0  0  0
   38.2280   41.9850   29.2320 C   0  0  0  0  0  0  0  0  0  0  0  0
   40.2570   40.0800   29.6820 C   0  0  0  0  0  0  0  0  0  0  0  0
   39.8160   37.7600   30.5470 C   0  0  0  0  0  0  0  0  0  0  0  0
   41.1530   41.2340   27.1130 C   0  0  0  0  0  0  0  0  0  0  0  0
   38.1930   41.1730   30.3070 C   0  0  0  0  0  0  0  0  0  0  0  0
   41.1250   40.4440   26.1580 O   0  0  0  0  0  0  0  0  0  0  0  0
   40.3060   40.8030   28.4360 C   0  0  0  0  0  0  0  0  0  0  0  0
   39.3860   41.9550   28.5740 C   0  0  0  0  0  0  0  0  0  0  0  0
   41.7590   42.3150   27.1080 O   0  0  0  0  0  0  0  0  0  0  0  0
  3  6  1  0
  3  2  1  0
  4  8  1  0
  5  3  1  0
  5  1  1  0
  8  1  1  0
  9  7  2  0
 10  7  1  0
 10 11  1  0
 10  5  1  0
 11  4  1  0
 12  7  1  0
M  END
$$$$

     RDKit          3D

 28 30  0  0  0  0  0  0  0  0999 V2000
   42.0200   39.6300   28.3260 C   0  0  0  0  0  0  0  0  0  0  0  0
   40.7460   43.2110   29.8560 N   0  0  0  0  0  0  0  0  0  0  0  0
   40.3360   40.8640   30.1790 N   0  0  0  0  0  0  0  0  0  0  0  0
   35.9270   33.3780   34.4040 O   0  0  0  0  0  0  0  0  0  0  0  0
   34.6600   32.8730   34.7480 C   0  0  0  0  0  0  0  0  0  0  0  0
   34.9010   30.8950   33.5390 C   0  0  0  0  0  0  0  0  0  0  0  0
   39.6900   39.0970   33.3570 C   0  0  0  0  0  0  0  0  0  0  0  0
   38.3000   38.4970   33.4060 C   0  0  0  0  0  0  0  0  0  0  0  0
   35.0530   35.4760   32.7650 O   0  0  0  0  0  0  0  0  0  0  0  0
   40.7920   42.3220   32.1250 C   0  0  0  0  0  0  0  0  0  0  0  0
   34.1520   33.7040   35.6920 N   0  0  0  0  0  0  0  0  0  0  0  0
   41.4040   40.6100   27.4320 C   0  0  0  0  0  0  0  0  0  0  0  0
   37.6710   34.5970   35.1530 C   0  0  0  0  0  0  0  0  0  0  0  0
   34.4900   31.3820   34.8210 C   0  0  0  0  0  0  0  0  0  0  0  0
   40.7270   41.9620   29.4250 C   0  0  0  0  0  0  0  0  0  0  0  0
   40.8530   44.6690   31.6130 O   0  0  0  0  0  0  0  0  0  0  0  0
   41.6790   41.3040   32.7310 O   0  0  0  0  0  0  0  0  0  0  0  0
   35.0810   34.8250   36.0030 C   0  0  0  0  0  0  0  0  0  0  0  0
   36.1720   34.6970   34.9150 C   0  0  0  0  0  0  0  0  0  0  0  0
   37.9380   37.0660   33.7350 C   0  0  0  0  0  0  0  0  0  0  0  0
   36.3250   37.1180   33.9630 C   0  0  0  0  0  0  0  0  0  0  0  0
   43.3900   40.2190   28.6920 C   0  0  0  0  0  0  0  0  0  0  0  0
   40.8160   40.8480   31.6260 C   0  0  0  0  0  0  0  0  0  0  0  0
   39.6590   40.2450   32.3900 C   0  0  0  0  0  0  0  0  0  0  0  0
   40.7780   41.7490   28.1090 N   0  0  0  0  0  0  0  0  0  0  0  0
   35.9490   35.6870   33.7950 C   0  0  0  0  0  0  0  0  0  0  0  0
   34.2640   31.0970   36.3350 C   0  0  0  0  0  0  0  0  0  0  0  0
   41.3410   43.4100   31.2120 C   0  0  0  0  0  0  0  0  0  0  0  0
  1 22  1  0
  2 28  1  0
  3 23  1  0
  4  5  1  0
  4 19  1  0
  5 14  1  0
  5 11  2  0
  6 14  1  0
  7  8  1  0
  8 20  1  0
 10 17  1  0
 11 18  1  0
 12 25  1  0
 12  1  1  0
 14 27  1  0
 15  2  2  0
 15  3  2  0
 19 13  1  0
 19 18  1  0
 20 21  1  0
 23 10  1  0
 23 24  1  0
 23 17  1  0
 24  7  1  0
 25 15  1  0
 26  9  1  0
 26 21  1  0
 26 19  1  0
 28 16  1  0
 28 10  1  0
M  END
$$$$

     RDKit          3D

 12 11  0  0  0  0  0  0  0  0999 V2000
   38.7520   35.5890   34.4580 N   0  0  0  0  0  0  0  0  0  0  0  0
   38.2220   34.2980   34.4000 C   0  0  0  0  0  0  0  0  0  0  0  0
   38.6410   40.6390   37.8440 N   0  0  0  0  0  0  0  0  0  0  0  0
   38.3330   33.6340   35.7810 C   0  0  0  0  0  0  0  0  0  0  0  0
   38.2580   36.6740   35.0620 C   0  0  0  0  0  0  0  0  0  0  0  0
   36.8870   34.1780   33.7440 C   0  0  0  0  0  0  0  0  0  0  0  0
   39.7560   40.0130   34.3010 O   0  0  0  0  0  0  0  0  0  0  0  0
   39.1450   37.7150   34.6660 C   0  0  0  0  0  0  0  0  0  0  0  0
   37.4140   36.6870   35.9790 O   0  0  0  0  0  0  0  0  0  0  0  0
   39.1260   39.5730   36.9950 C   0  0  0  0  0  0  0  0  0  0  0  0
   38.2090   39.5020   35.8380 C   0  0  0  0  0  0  0  0  0  0  0  0
   38.6650   39.1380   34.5070 C   0  0  0  0  0  0  0  0  0  0  0  0
  1  5  1  0
  2  1  1  0
  2  4  1  0
  5  9  2  0
  6  2  1  0
  8  5  1  0
 10  3  1  0
 11 10  1  0
 12  7  1  0
 12  8  1  0
 12 11  1  0
M  END
$$$$

     RDKit          3D

 23 24  0  0  0  0  0  0  0  0999 V2000
   38.0510   38.4180   33.0230 C   0  0  0  0  0  0  0  0  0  0  0  0
   37.4310   37.0720   33.2660 C   0  0  0  0  0  0  0  0  0  0  0  0
   43.1110   42.3860   30.5510 C   0  0  0  0  0  0  0  0  0  0  0  0
   35.7870   35.9780   34.3460 N   0  0  0  0  0  0  0  0  0  0  0  0
   43.6670   40.2850   29.2110 S   0  0  0  0  0  0  0  0  0  0  0  0
   39.3040   38.6530   33.8320 C   0  0  0  0  0  0  0  0  0  0  0  0
   41.3340   40.0900   35.0490 C   0  0  0  0  0  0  0  0  0  0  0  0
   36.3450   35.3790   31.4370 C   0  0  0  0  0  0  0  0  0  0  0  0
   34.8340   35.4570   31.4180 C   0  0  0  0  0  0  0  0  0  0  0  0
   44.5250   41.7650   32.9360 O   0  0  0  0  0  0  0  0  0  0  0  0
   42.3280   40.6030   32.9000 C   0  0  0  0  0  0  0  0  0  0  0  0
   42.4210   40.2070   31.4960 C   0  0  0  0  0  0  0  0  0  0  0  0
   42.9860   40.9900   30.5180 N   0  0  0  0  0  0  0  0  0  0  0  0
   43.3240   41.4210   33.5670 C   0  0  0  0  0  0  0  0  0  0  0  0
   44.3190   41.6490   28.6820 C   0  0  0  0  0  0  0  0  0  0  0  0
   41.2370   40.0950   33.5980 C   0  0  0  0  0  0  0  0  0  0  0  0
   36.8970   34.1790   30.7080 C   0  0  0  0  0  0  0  0  0  0  0  0
   44.3320   42.5440   29.6340 C   0  0  0  0  0  0  0  0  0  0  0  0
   36.9570   36.8120   34.5720 C   0  0  0  0  0  0  0  0  0  0  0  0
   42.4770   40.4980   35.7260 C   0  0  0  0  0  0  0  0  0  0  0  0
   37.2590   36.1040   32.2120 C   0  0  0  0  0  0  0  0  0  0  0  0
   43.5510   41.0550   35.0100 C   0  0  0  0  0  0  0  0  0  0  0  0
   40.1600   39.5230   33.0500 N   0  0  0  0  0  0  0  0  0  0  0  0
  1  2  1  0
  1  6  1  0
  2 21  1  0
  2 19  1  0
  4 19  1  0
  5 13  1  0
  7 20  1  0
  8 21  2  3
  9  8  1  0
 10 14  1  0
 11 14  2  0
 11 16  1  0
 12 11  1  0
 13  3  1  0
 13 12  1  0
 14 22  1  0
 15  5  1  0
 15 18  1  0
 16  7  2  0
 17  8  1  0
 18  3  1  0
 22 20  2  0
 23 16  1  0
 23  6  1  0
M  END
$$$$

     RDKit          3D

  9  9  0  0  0  0  0  0  0  0999 V2000
   39.7530   40.2270   28.6310 C   0  0  0  0  0  0  0  0  0  0  0  0
   39.4860   40.1100   27.3230 O   0  0  0  0  0  0  0  0  0  0  0  0
   40.6850   36.9260   31.9180 C   0  0  0  0  0  0  0  0  0  0  0  0
   39.4010   39.3830   29.7620 C   0  0  0  0  0  0  0  0  0  0  0  0
   38.9810   37.1480   30.5530 O   0  0  0  0  0  0  0  0  0  0  0  0
   39.4320   36.4110   31.5740 C   0  0  0  0  0  0  0  0  0  0  0  0
   40.9880   38.1520   31.1700 C   0  0  0  0  0  0  0  0  0  0  0  0
   38.3060   38.8780   29.6770 O   0  0  0  0  0  0  0  0  0  0  0  0
   40.0220   38.0750   30.1130 C   0  0  0  0  0  0  0  0  0  0  0  0
  1  4  1  0
  2  1  1  0
  4  8  1  0
  5  6  1  0
  6  3  1  0
  7  3  1  0
  9  4  1  0
  9  5  1  0
  9  7  1  0
M  END
$$$$

     RDKit          3D

 23 26  0  0  0  0  0  0  0  0999 V2000
   40.5430   43.3980   29.0840 C   0  0  0  0  0  0  0  0  0  0  0  0
   38.8230   41.4640   31.5680 C   0  0  0  0  0  0  0  0  0  0  0  0
   40.0900   41.8990   31.1170 C   0  0  0  0  0  0  0  0  0  0  0  0
   38.5430   38.0790   34.4750 C   0  0  0  0  0  0  0  0  0  0  0  0
   39.8840   40.3390   29.1530 O   0  0  0  0  0  0  0  0  0  0  0  0
   39.7630   37.9230   30.7670 N   0  0  0  0  0  0  0  0  0  0  0  0
   37.6990   36.0370   31.9910 C   0  0  0  0  0  0  0  0  0  0  0  0
   39.4370   41.6610   33.9770 O   0  0  0  0  0  0  0  0  0  0  0  0
   37.7180   35.8030   37.1790 C   0  0  0  0  0  0  0  0  0  0  0  0
   37.2280   34.8410   32.4630 C   0  0  0  0  0  0  0  0  0  0  0  0
   38.8860   38.1950   33.1220 N   0  0  0  0  0  0  0  0  0  0  0  0
   39.2470   39.4860   32.7260 C   0  0  0  0  0  0  0  0  0  0  0  0
   41.0970   42.3050   30.0310 C   0  0  0  0  0  0  0  0  0  0  0  0
   39.8800   39.2750   31.3030 C   0  0  0  0  0  0  0  0  0  0  0  0
   37.2530   34.6410   33.8340 C   0  0  0  0  0  0  0  0  0  0  0  0
   37.8820   36.0050   38.7340 N   0  0  0  0  0  0  0  0  0  0  0  0
   37.7590   35.5020   36.2480 C   0  0  0  0  0  0  0  0  0  0  0  0
   38.6930   40.9080   32.9950 C   0  0  0  0  0  0  0  0  0  0  0  0
   38.0150   36.8110   34.2060 C   0  0  0  0  0  0  0  0  0  0  0  0
   37.7530   35.6980   34.7130 C   0  0  0  0  0  0  0  0  0  0  0  0
   38.7520   38.7580   35.4240 O   0  0  0  0  0  0  0  0  0  0  0  0
   39.2940   40.4780   30.4570 C   0  0  0  0  0  0  0  0  0  0  0  0
   38.2390   36.9300   32.8160 C   0  0  0  0  0  0  0  0  0  0  0  0
  1 13  1  0
  2 18  1  0
  3  2  1  0
  4 21  2  0
  5 22  1  0
  6 14  1  0
  7 10  2  0
  7 23  1  0
  9 16  1  0
 10 15  1  0
 11  4  1  0
 12 18  1  0
 12 11  1  0
 13  3  1  0
 14 12  1  0
 15 20  2  0
 17  9  1  0
 18  8  1  0
 19  4  1  0
 19 20  1  0
 20 17  1  0
 22  3  1  0
 22 14  1  0
 22  2  1  0
 23 11  1  0
 23 19  2  0
M  END
$$$$

     RDKit          3D

  5  4  0  0  0  0  0  0  0  0999 V2000
   40.9770   41.1990   28.1040 O   0  0  0  0  0  0  0  0  0  0  0  0
   40.7540   39.6400   28.2330 P   0  0  0  0  0  0  0  0  0  0  0  0
   42.0930   39.1870   28.6780 O   0  0  0  0  0  0  0  0  0  0  0  0
   40.0660   39.1980   29.2900 O   0  0  0  0  0  0  0  0  0  0  0  0
   40.0950   39.2720   26.9520 O   0  0  0  0  0  0  0  0  0  0  0  0
  1  2  1  0
  2  3  1  0
  2  4  1  0
  5  2  2  0
M  END
$$$$

     RDKit          3D

 12 12  0  0  0  0  0  0  0  0999 V2000
   41.1210   41.3750   35.3700 C   0  0  0  0  0  0  0  0  0  0  0  0
   40.6200   38.1090   33.6180 C   0  0  0  0  0  0  0  0  0  0  0  0
   38.1120   35.0660   33.9470 C   0  0  0  0  0  0  0  0  0  0  0  0
   40.6650   40.0620   34.9830 N   0  0  0  0  0  0  0  0  0  0  0  0
   38.6700   36.3140   34.6930 C   0  0  0  0  0  0  0  0  0  0  0  0
   39.6910   39.4670   35.7560 C   0  0  0  0  0  0  0  0  0  0  0  0
   39.5090   37.5750   34.3650 C   0  0  0  0  0  0  0  0  0  0  0  0
   36.9000   34.6050   34.5820 N   0  0  0  0  0  0  0  0  0  0  0  0
   41.1420   39.3310   33.8760 C   0  0  0  0  0  0  0  0  0  0  0  0
   39.0760   38.4250   35.1140 C   0  0  0  0  0  0  0  0  0  0  0  0
   42.2460   39.9470   32.9910 C   0  0  0  0  0  0  0  0  0  0  0  0
   38.0010   36.3160   35.9430 N   0  0  0  0  0  0  0  0  0  0  0  0
  2  9  1  0
  2  7  2  0
  3  8  1  0
  3  5  1  0
  4  1  1  0
  4  6  1  0
  5 12  1  0
  7  5  1  0
  7 10  1  0
  9 11  1  0
  9  4  1  0
 10  6  1  0
M  END
$$$$

     RDKit          3D

 36 39  0  0  0  0  0  0  0  0999 V2000
   42.4100   44.9020   28.1750 O   0  0  0  0  0  0  0  0  0  0  0  0
   46.0290   44.3360   27.4190 C   0  0  0  0  0  0  0  0  0  0  0  0
   34.2200   31.8210   36.2780 N   0  0  0  0  0  0  0  0  0  0  0  0
   37.0600   28.8870   37.6960 C   0  0  0  0  0  0  0  0  0  0  0  0
   36.9590   36.5990   34.3940 C   0  0  0  0  0  0  0  0  0  0  0  0
   35.8600   30.8010   35.5070 C   0  0  0  0  0  0  0  0  0  0  0  0
   38.2780   34.9390   33.2500 C   0  0  0  0  0  0  0  0  0  0  0  0
   44.1010   43.2310   27.5040 C   0  0  0  0  0  0  0  0  0  0  0  0
   36.2010   32.9330   35.0310 C   0  0  0  0  0  0  0  0  0  0  0  0
   42.4100   41.8290   28.4510 C   0  0  0  0  0  0  0  0  0  0  0  0
   40.6670   40.6800   30.0460 C   0  0  0  0  0  0  0  0  0  0  0  0
   38.5900   35.6950   32.0090 C   0  0  0  0  0  0  0  0  0  0  0  0
   35.3740   27.0550   38.4520 O   0  0  0  0  0  0  0  0  0  0  0  0
   35.9530   28.5680   36.5460 C   0  0  0  0  0  0  0  0  0  0  0  0
   44.6510   43.9180   29.7960 C   0  0  0  0  0  0  0  0  0  0  0  0
   37.4580   33.0410   34.5620 N   0  0  0  0  0  0  0  0  0  0  0  0
   37.9380   37.5490   33.7320 C   0  0  0  0  0  0  0  0  0  0  0  0
   36.5750   34.1330   34.5810 N   0  0  0  0  0  0  0  0  0  0  0  0
   45.8970   44.0360   26.1440 O   0  0  0  0  0  0  0  0  0  0  0  0
   42.5970   40.2910   28.4190 C   0  0  0  0  0  0  0  0  0  0  0  0
   36.8510   35.2440   33.6550 C   0  0  0  0  0  0  0  0  0  0  0  0
   35.6550   26.0720   37.3160 C   0  0  0  0  0  0  0  0  0  0  0  0
   43.1130   42.5260   27.9270 C   0  0  0  0  0  0  0  0  0  0  0  0
   35.0910   29.8540   36.1920 N   0  0  0  0  0  0  0  0  0  0  0  0
   41.1970   39.8750   28.8720 C   0  0  0  0  0  0  0  0  0  0  0  0
   40.6550   39.6020   31.1120 C   0  0  0  0  0  0  0  0  0  0  0  0
   42.8810   44.6390   26.0860 C   0  0  0  0  0  0  0  0  0  0  0  0
   39.2460   39.3210   31.5590 C   0  0  0  0  0  0  0  0  0  0  0  0
   35.4270   31.9640   35.7570 C   0  0  0  0  0  0  0  0  0  0  0  0
   39.2270   37.9850   31.8500 N   0  0  0  0  0  0  0  0  0  0  0  0
   47.0480   44.8850   27.3560 N   0  0  0  0  0  0  0  0  0  0  0  0
   38.6020   37.0680   32.5390 C   0  0  0  0  0  0  0  0  0  0  0  0
   45.2550   43.5250   28.4040 C   0  0  0  0  0  0  0  0  0  0  0  0
   34.9530   27.4150   37.0870 C   0  0  0  0  0  0  0  0  0  0  0  0
   43.4180   44.5090   27.4980 C   0  0  0  0  0  0  0  0  0  0  0  0
   34.0620   30.6410   36.7620 C   0  0  0  0  0  0  0  0  0  0  0  0
  2 33  1  0
  3 36  1  0
  6 24  1  0
  8 23  1  0
  8 33  1  0
  9 16  1  0
  9 29  1  0
 11 26  1  0
 12 32  1  0
 12  7  1  0
 14  4  1  0
 17  5  1  0
 18 16  1  0
 18  9  1  0
 19  2  2  0
 20 10  1  0
 20 25  1  0
 21  7  1  0
 21  5  1  0
 21 18  1  0
 22 13  1  0
 23 10  1  0
 24 14  1  0
 24 36  1  0
 25 11  1  0
 26 28  1  0
 28 30  1  0
 29  6  1  0
 29  3  1  0
 30 32  1  0
 31  2  1  0
 32 17  2  0
 33 15  1  0
 34 14  1  0
 34 22  1  0
 34 13  1  0
 35 27  1  0
 35  8  1  0
 35  1  1  0
M  END
$$$$

     RDKit          3D

  8  7  0  0  0  0  0  0  0  0999 V2000
   41.1340   41.8320   32.2080 O   0  0  0  0  0  0  0  0  0  0  0  0
   40.3720   40.3680   30.2410 N   0  0  0  0  0  0  0  0  0  0  0  0
   38.2790   41.3040   30.3240 N   0  0  0  0  0  0  0  0  0  0  0  0
   42.0530   39.5040   28.7910 C   0  0  0  0  0  0  0  0  0  0  0  0
   39.9450   42.3020   31.6310 C   0  0  0  0  0  0  0  0  0  0  0  0
   40.3920   37.9360   29.7130 C   0  0  0  0  0  0  0  0  0  0  0  0
   40.5760   39.3610   29.2210 C   0  0  0  0  0  0  0  0  0  0  0  0
   39.4340   41.1470   30.8850 C   0  0  0  0  0  0  0  0  0  0  0  0
  2  8  1  0
  3  8  2  0
  4  7  1  0
  5  1  1  0
  7  6  1  0
  7  2  1  0
  8  5  1  0
M  END
$$$$

     RDKit          3D

 12 11  0  0  0  0  0  0  0  0999 V2000
   38.9920   41.8360   30.7860 O   0  0  0  0  0  0  0  0  0  0  0  0
   42.1960   37.7360   30.3800 O   0  0  0  0  0  0  0  0  0  0  0  0
   42.4840   43.7770   30.5570 O   0  0  0  0  0  0  0  0  0  0  0  0
   40.2780   37.1420   31.0050 N   0  0  0  0  0  0  0  0  0  0  0  0
   41.2130   38.2320   30.0690 P   0  0  0  0  0  0  0  0  0  0  0  0
   40.5540   38.2730   28.8350 O   0  0  0  0  0  0  0  0  0  0  0  0
   40.1180   39.5760   30.6030 C   0  0  0  0  0  0  0  0  0  0  0  0
   41.4090   41.8080   31.2270 C   0  0  0  0  0  0  0  0  0  0  0  0
   42.3670   42.4550   30.5670 C   0  0  0  0  0  0  0  0  0  0  0  0
   40.0050   42.4980   31.4090 C   0  0  0  0  0  0  0  0  0  0  0  0
   41.0570   40.4850   30.9270 N   0  0  0  0  0  0  0  0  0  0  0  0
   43.5920   41.6110   30.0700 C   0  0  0  0  0  0  0  0  0  0  0  0
  1 10  1  0
  3  9  1  0
  5  6  2  0
  5  2  1  0
  5  7  1  0
  5  4  1  0
  7 11  1  0
  8 10  1  0
  9 12  1  0
  9  8  1  0
 11  8  1  0
M  END
$$$$

     RDKit          3D

  7  6  0  0  0  0  0  0  0  0999 V2000
   36.6790   32.2620   31.8180 N   0  0  0  0  0  0  0  0  0  0  0  0
   34.7310   32.2440   33.3620 C   0  0  0  0  0  0  0  0  0  0  0  0
   37.4430   30.8770   31.6680 C   0  0  0  0  0  0  0  0  0  0  0  0
   37.7950   33.3350   31.9660 C   0  0  0  0  0  0  0  0  0  0  0  0
   35.7670   32.3590   30.6810 C   0  0  0  0  0  0  0  0  0  0  0  0
   35.9940   32.1340   33.1350 N   0  0  0  0  0  0  0  0  0  0  0  0
   33.6120   32.7660   33.2400 N   0  0  0  0  0  0  0  0  0  0  0  0
  1  4  1  0
  1  6  1  0
  3  1  1  0
  5  1  1  0
  6  2  1  0
  7  2  2  0
M  END
$$$$

     RDKit          3D

 13 13  0  0  0  0  0  0  0  0999 V2000
   37.6540   37.5080   31.1130 O   0  0  0  0  0  0  0  0  0  0  0  0
   38.3690   41.0770   31.5350 O   0  0  0  0  0  0  0  0  0  0  0  0
   38.3440   39.8990   31.2450 C   0  0  0  0  0  0  0  0  0  0  0  0
   39.4840   41.8800   30.9580 C   0  0  0  0  0  0  0  0  0  0  0  0
   40.5650   39.7520   30.5030 C   0  0  0  0  0  0  0  0  0  0  0  0
   41.7480   39.1930   29.6890 C   0  0  0  0  0  0  0  0  0  0  0  0
   40.5150   43.7590   29.8780 O   0  0  0  0  0  0  0  0  0  0  0  0
   36.3610   38.9490   32.0690 O   0  0  0  0  0  0  0  0  0  0  0  0
   39.3390   43.1180   30.4250 C   0  0  0  0  0  0  0  0  0  0  0  0
   40.5650   41.1640   30.7550 C   0  0  0  0  0  0  0  0  0  0  0  0
   41.3140   40.9750   32.2890 O   0  0  0  0  0  0  0  0  0  0  0  0
   39.6490   39.1820   30.8320 C   0  0  0  0  0  0  0  0  0  0  0  0
   37.3530   38.7150   31.3660 C   0  0  0  0  0  0  0  0  0  0  0  0
  1 13  2  0
  3 13  1  0
  3  2  1  0
  4  2  1  0
  5 10  1  0
  5 12  2  0
  6  5  1  0
  7  9  1  0
  9  4  2  3
 10  4  1  0
 10 11  1  0
 12  3  1  0
 13  8  1  0
M  END
$$$$

     RDKit          3D

 12 12  0  0  0  0  0  0  0  0999 V2000
   41.0550   41.4330   28.9160 C   0  0  0  0  0  0  0  0  0  0  0  0
   39.8930   38.1980   28.8660 O   0  0  0  0  0  0  0  0  0  0  0  0
   39.9900   43.7900   32.6650 O   0  0  0  0  0  0  0  0  0  0  0  0
   40.9750   42.6380   28.1240 O   0  0  0  0  0  0  0  0  0  0  0  0
   41.4450   40.0010   28.8690 C   0  0  0  0  0  0  0  0  0  0  0  0
   40.4540   39.1360   28.2080 C   0  0  0  0  0  0  0  0  0  0  0  0
   40.1430   42.8240   31.8870 C   0  0  0  0  0  0  0  0  0  0  0  0
   38.8350   40.6820   29.4910 O   0  0  0  0  0  0  0  0  0  0  0  0
   39.8450   42.2070   30.8910 C   0  0  0  0  0  0  0  0  0  0  0  0
   39.7820   41.4510   29.7630 C   0  0  0  0  0  0  0  0  0  0  0  0
   40.2000   39.2990   26.9650 O   0  0  0  0  0  0  0  0  0  0  0  0
   41.0750   42.0650   31.7170 O   0  0  0  0  0  0  0  0  0  0  0  0
  1  4  1  0
  1 10  1  0
  5  1  1  0
  6  2  1  0
  6  5  1  0
  7  3  2  0
  8 10  2  0
  9 10  1  0
  9 12  1  0
  9  7  1  0
 11  6  2  0
 12  7  1  0
M  END
$$$$

     RDKit          3D

  7  6  0  0  0  0  0  0  0  0999 V2000
   42.0430   42.4610   29.9790 C   0  0  0  0  0  0  0  0  0  0  0  0
   39.9680   39.4300   28.8320 O   0  0  0  0  0  0  0  0  0  0  0  0
   40.5710   42.0410   30.1340 C   0  0  0  0  0  0  0  0  0  0  0  0
   39.7380   37.9230   30.2580 O   0  0  0  0  0  0  0  0  0  0  0  0
   40.0560   41.2340   30.8390 N   0  0  0  0  0  0  0  0  0  0  0  0
   40.5900   39.8450   31.2640 C   0  0  0  0  0  0  0  0  0  0  0  0
   40.2770   39.0370   30.0940 C   0  0  0  0  0  0  0  0  0  0  0  0
  1  3  1  0
  2  7  2  0
  3  5  1  0
  5  6  1  0
  7  4  1  0
  7  6  1  0
M  END
$$$$

     RDKit          3D

 19 20  0  0  0  0  0  0  0  0999 V2000
   36.9300   35.3390   34.9160 C   0  0  0  0  0  0  0  0  0  0  0  0
   41.9560   40.9910   30.4310 C   0  0  0  0  0  0  0  0  0  0  0  0
   36.3130   35.5290   32.5620 C   0  0  0  0  0  0  0  0  0  0  0  0
   40.4010   38.6470   33.1690 C   0  0  0  0  0  0  0  0  0  0  0  0
   40.5600   40.9120   32.4810 N   0  0  0  0  0  0  0  0  0  0  0  0
   41.1810   41.7690   31.5010 C   0  0  0  0  0  0  0  0  0  0  0  0
   35.7970   33.5180   33.7760 C   0  0  0  0  0  0  0  0  0  0  0  0
   39.5550   38.4260   31.9320 C   0  0  0  0  0  0  0  0  0  0  0  0
   35.2440   32.1020   33.7570 C   0  0  0  0  0  0  0  0  0  0  0  0
   39.5190   38.9580   34.3590 C   0  0  0  0  0  0  0  0  0  0  0  0
   35.4360   34.4470   32.7600 C   0  0  0  0  0  0  0  0  0  0  0  0
   38.1700   36.9810   33.5210 C   0  0  0  0  0  0  0  0  0  0  0  0
   41.3450   39.7800   32.9580 C   0  0  0  0  0  0  0  0  0  0  0  0
   42.1060   41.8350   29.1670 C   0  0  0  0  0  0  0  0  0  0  0  0
   38.5640   37.8540   34.6440 C   0  0  0  0  0  0  0  0  0  0  0  0
   37.0990   36.0110   33.6630 C   0  0  0  0  0  0  0  0  0  0  0  0
   38.8280   37.1520   32.2050 C   0  0  0  0  0  0  0  0  0  0  0  0
   36.3470   34.0590   34.9820 C   0  0  0  0  0  0  0  0  0  0  0  0
   34.4560   34.2060   31.9460 O   0  0  0  0  0  0  0  0  0  0  0  0
  1 18  1  0
  2  6  1  0
  3 11  2  0
  3 16  1  0
  4 13  1  0
  4 10  1  0
  5 13  1  0
  6  5  1  0
  7 18  2  0
  8 17  1  0
  8  4  1  0
  9  7  1  0
 10 15  1  0
 11  7  1  0
 12 16  1  0
 12 15  2  0
 14  2  1  0
 16  1  2  0
 17 12  1  0
 19 11  1  0
M  END
$$$$

     RDKit          3D

 16 16  0  0  0  0  0  0  0  0999 V2000
   36.2410   37.0920   34.7690 C   0  0  0  0  0  0  0  0  0  0  0  0
   34.0240   34.3130   37.7500 C   0  0  0  0  0  0  0  0  0  0  0  0
   40.0030   39.3920   31.2710 C   0  0  0  0  0  0  0  0  0  0  0  0
   41.4010   39.0090   30.7920 C   0  0  0  0  0  0  0  0  0  0  0  0
   38.3050   35.6270   33.7670 C   0  0  0  0  0  0  0  0  0  0  0  0
   36.4130   35.7280   35.2510 C   0  0  0  0  0  0  0  0  0  0  0  0
   39.5040   38.6320   32.4760 C   0  0  0  0  0  0  0  0  0  0  0  0
   37.8400   35.7570   35.1390 O   0  0  0  0  0  0  0  0  0  0  0  0
   37.9570   36.8730   33.0230 C   0  0  0  0  0  0  0  0  0  0  0  0
   36.5470   33.8910   36.7440 N   0  0  0  0  0  0  0  0  0  0  0  0
   35.7920   35.1660   36.4710 C   0  0  0  0  0  0  0  0  0  0  0  0
   38.8430   37.3370   32.1280 N   0  0  0  0  0  0  0  0  0  0  0  0
   42.2070   40.2570   30.5070 C   0  0  0  0  0  0  0  0  0  0  0  0
   36.7200   37.2630   33.4200 N   0  0  0  0  0  0  0  0  0  0  0  0
   33.7640   33.8760   35.5780 C   0  0  0  0  0  0  0  0  0  0  0  0
   34.4070   34.8550   36.4390 N   0  0  0  0  0  0  0  0  0  0  0  0
  1  6  1  0
  3  7  1  0
  4  3  1  0
  5  8  1  0
  6 11  1  0
  8  6  1  0
  9 14  2  0
  9  5  1  0
 11 10  1  0
 12  7  1  0
 12  9  1  0
 13  4  1  0
 14  1  1  0
 15 16  1  0
 16 11  1  0
 16  2  1  0
M  END
$$$$
