
     RDKit          3D

 10 10  0  0  0  0  0  0  0  0999 V2000
   36.5460   37.6430   24.8020 O   0  0  0  0  0  0  0  0  0  0  0  0
   35.7670   39.0970   26.2650 O   0  0  0  0  0  0  0  0  0  0  0  0
   33.4130   38.7630   25.0670 N   0  0  0  0  0  0  0  0  0  0  0  0
   33.3390   40.4890   22.7930 C   0  0  0  0  0  0  0  0  0  0  0  0
   32.7300   39.9990   25.2140 C   0  0  0  0  0  0  0  0  0  0  0  0
   35.7650   40.6410   22.8610 O   0  0  0  0  0  0  0  0  0  0  0  0
   34.5730   38.8910   24.1400 C   0  0  0  0  0  0  0  0  0  0  0  0
   32.2480   40.4590   23.8260 C   0  0  0  0  0  0  0  0  0  0  0  0
   34.5900   40.3080   23.6200 C   0  0  0  0  0  0  0  0  0  0  0  0
   35.7310   38.5400   25.0620 C   0  0  0  0  0  0  0  0  0  0  0  0
  1 10  2  0
  3  5  1  0
  4  9  1  0
  4  8  1  0
  7 10  1  0
  7  3  1  0
  8  5  1  0
  9  6  1  0
  9  7  1  0
 10  2  1  0
M  END
$$$$

     RDKit          3D

 11 11  0  0  0  0  0  0  0  0999 V2000
   33.9830   39.5630   24.8310 C   0  0  0  0  0  0  0  0  0  0  0  0
   36.0540   37.5720   23.4680 O   0  0  0  0  0  0  0  0  0  0  0  0
   33.2410   39.1210   23.5880 C   0  0  0  0  0  0  0  0  0  0  0  0
   32.6230   40.1270   24.4730 C   0  0  0  0  0  0  0  0  0  0  0  0
   36.3960   38.2980   24.3620 C   0  0  0  0  0  0  0  0  0  0  0  0
   36.5320   40.1010   22.7870 O   0  0  0  0  0  0  0  0  0  0  0  0
   34.9630   41.7690   24.1650 O   0  0  0  0  0  0  0  0  0  0  0  0
   36.9220   37.9030   25.4030 O   0  0  0  0  0  0  0  0  0  0  0  0
   35.1560   40.5290   24.6560 C   0  0  0  0  0  0  0  0  0  0  0  0
   36.3370   39.7620   24.1160 C   0  0  0  0  0  0  0  0  0  0  0  0
   32.2420   38.3660   22.7090 C   0  0  0  0  0  0  0  0  0  0  0  0
  1  9  1  0
  2  5  2  0
  3 11  1  0
  3  4  1  0
  3  1  1  0
  4  1  1  0
  5  8  1  0
  9  7  1  0
 10  6  1  0
 10  5  1  0
 10  9  1  0
M  END
$$$$

     RDKit          3D

  9  9  0  0  0  0  0  0  0  0999 V2000
   36.3420   40.4140   24.6940 C   0  0  0  0  0  0  0  0  0  0  0  0
   34.0220   39.5560   25.5520 C   0  0  0  0  0  0  0  0  0  0  0  0
   35.8930   38.3960   23.5490 C   0  0  0  0  0  0  0  0  0  0  0  0
   36.9480   39.0450   24.2930 C   0  0  0  0  0  0  0  0  0  0  0  0
   33.1350   39.4120   24.5800 N   0  0  0  0  0  0  0  0  0  0  0  0
   35.0950   39.3770   22.7490 C   0  0  0  0  0  0  0  0  0  0  0  0
   34.9690   40.6140   25.2780 N   0  0  0  0  0  0  0  0  0  0  0  0
   33.6400   39.3380   23.1980 C   0  0  0  0  0  0  0  0  0  0  0  0
   33.2120   40.5050   22.6600 O   0  0  0  0  0  0  0  0  0  0  0  0
  1  7  2  0
  3  4  1  0
  4  1  1  0
  5  2  1  0
  6  8  1  0
  6  3  1  0
  7  2  1  0
  8  9  1  0
  8  5  1  0
M  END
$$$$

     RDKit          3D

 25 28  0  0  0  0  0  0  0  0999 V2000
   36.5220   38.1460   30.3130 C   0  0  0  0  0  0  0  0  0  0  0  0
   33.8200   40.8330   22.5780 N   0  0  0  0  0  0  0  0  0  0  0  0
   37.0040   36.2450   31.6870 O   0  0  0  0  0  0  0  0  0  0  0  0
   36.6080   37.8510   34.2180 C   0  0  0  0  0  0  0  0  0  0  0  0
   36.1730   39.3780   30.2290 C   0  0  0  0  0  0  0  0  0  0  0  0
   35.2170   39.9070   20.8310 C   0  0  0  0  0  0  0  0  0  0  0  0
   36.1760   37.3860   29.1300 C   0  0  0  0  0  0  0  0  0  0  0  0
   34.5010   39.7460   23.1910 C   0  0  0  0  0  0  0  0  0  0  0  0
   36.5250   40.3270   31.1620 O   0  0  0  0  0  0  0  0  0  0  0  0
   33.9020   42.1860   22.9150 C   0  0  0  0  0  0  0  0  0  0  0  0
   36.4660   36.1990   29.1030 O   0  0  0  0  0  0  0  0  0  0  0  0
   34.3720   39.1870   24.6380 C   0  0  0  0  0  0  0  0  0  0  0  0
   35.0430   41.1830   29.0210 O   0  0  0  0  0  0  0  0  0  0  0  0
   34.6750   40.4150   26.7600 C   0  0  0  0  0  0  0  0  0  0  0  0
   36.5350   38.1950   32.8190 O   0  0  0  0  0  0  0  0  0  0  0  0
   34.9920   38.1920   24.8580 O   0  0  0  0  0  0  0  0  0  0  0  0
   35.4990   39.2770   22.1710 C   0  0  0  0  0  0  0  0  0  0  0  0
   35.3080   39.2960   27.6210 C   0  0  0  0  0  0  0  0  0  0  0  0
   33.5230   41.7950   21.5240 C   0  0  0  0  0  0  0  0  0  0  0  0
   37.1580   37.6930   31.5890 C   0  0  0  0  0  0  0  0  0  0  0  0
   35.4800   37.8390   27.9050 C   0  0  0  0  0  0  0  0  0  0  0  0
   33.8560   40.1200   25.5450 C   0  0  0  0  0  0  0  0  0  0  0  0
   35.5370   39.9600   29.0060 C   0  0  0  0  0  0  0  0  0  0  0  0
   32.7900   40.9020   25.5140 O   0  0  0  0  0  0  0  0  0  0  0  0
   33.7490   40.4870   21.0550 C   0  0  0  0  0  0  0  0  0  0  0  0
  1 20  1  0
  2 10  1  0
  2  8  1  0
  5  1  2  0
  5  9  1  0
  6 17  1  0
  7  1  1  0
  8 12  1  0
 11  7  2  0
 12 16  2  0
 12 22  1  0
 15  4  1  0
 17  8  1  0
 18 14  1  0
 18 21  1  0
 18 23  1  0
 19  2  1  0
 19 10  1  0
 20  3  1  0
 20 15  1  0
 21  7  1  0
 22 24  1  0
 22 14  1  0
 23 13  1  0
 23  5  1  0
 25  6  1  0
 25 19  1  0
 25  2  1  0
M  END
$$$$

     RDKit          3D

 10 10  0  0  0  0  0  0  0  0999 V2000
   36.4150   41.0900   24.0230 C   0  0  0  0  0  0  0  0  0  0  0  0
   34.8020   38.2310   25.6650 C   0  0  0  0  0  0  0  0  0  0  0  0
   33.6730   41.5910   23.8690 O   0  0  0  0  0  0  0  0  0  0  0  0
   35.1050   37.0360   25.6360 O   0  0  0  0  0  0  0  0  0  0  0  0
   34.0850   41.0980   25.2280 C   0  0  0  0  0  0  0  0  0  0  0  0
   35.3290   40.4690   24.8600 C   0  0  0  0  0  0  0  0  0  0  0  0
   37.3620   39.9420   23.8150 C   0  0  0  0  0  0  0  0  0  0  0  0
   34.1720   38.6590   26.7120 N   0  0  0  0  0  0  0  0  0  0  0  0
   36.5090   38.6870   23.7660 C   0  0  0  0  0  0  0  0  0  0  0  0
   35.2110   39.0080   24.5010 C   0  0  0  0  0  0  0  0  0  0  0  0
  1  6  1  0
  2  8  1  0
  3  5  1  0
  4  2  2  0
  6  5  1  0
  7  1  1  0
  9  7  1  0
  9 10  1  0
 10  6  1  0
 10  2  1  0
M  END
$$$$

     RDKit          3D

 17 18  0  0  0  0  0  0  0  0999 V2000
   36.1140   37.3860   29.5870 C   0  0  0  0  0  0  0  0  0  0  0  0
   35.4290   40.6210   27.9910 C   0  0  0  0  0  0  0  0  0  0  0  0
   32.7820   38.7070   28.6480 N   0  0  0  0  0  0  0  0  0  0  0  0
   33.9910   34.6040   30.6740 C   0  0  0  0  0  0  0  0  0  0  0  0
   36.0580   41.8900   27.7320 C   0  0  0  0  0  0  0  0  0  0  0  0
   37.2620   41.1740   29.7500 C   0  0  0  0  0  0  0  0  0  0  0  0
   33.4880   36.6280   29.3890 C   0  0  0  0  0  0  0  0  0  0  0  0
   34.4010   35.8100   30.0150 C   0  0  0  0  0  0  0  0  0  0  0  0
   35.1850   38.2790   29.0360 C   0  0  0  0  0  0  0  0  0  0  0  0
   35.7630   36.1990   30.1770 C   0  0  0  0  0  0  0  0  0  0  0  0
   33.8260   37.9030   28.9750 C   0  0  0  0  0  0  0  0  0  0  0  0
   36.8940   39.9310   29.5740 C   0  0  0  0  0  0  0  0  0  0  0  0
   38.1330   43.2070   29.3230 N   0  0  0  0  0  0  0  0  0  0  0  0
   34.4820   40.4230   27.0280 O   0  0  0  0  0  0  0  0  0  0  0  0
   37.1640   42.2290   28.8160 C   0  0  0  0  0  0  0  0  0  0  0  0
   33.0640   33.9300   30.9880 N   0  0  0  0  0  0  0  0  0  0  0  0
   35.8310   39.6480   28.6810 C   0  0  0  0  0  0  0  0  0  0  0  0
  1 10  1  0
  2 14  1  0
  2 17  1  0
  3 11  1  0
  4 16  2  0
  5  2  1  0
  5 15  1  0
  7  8  1  0
  8 10  2  0
  8  4  1  0
  9  1  2  0
 11  9  1  0
 11  7  2  0
 12  6  1  0
 15 13  1  0
 15  6  1  0
 17  9  1  0
 17 12  1  0
M  END
$$$$

     RDKit          3D

 10 10  0  0  0  0  0  0  0  0999 V2000
   35.3150   37.6840   22.2010 O   0  0  0  0  0  0  0  0  0  0  0  0
   35.6590   39.6240   24.1730 C   0  0  0  0  0  0  0  0  0  0  0  0
   33.5640   39.4140   25.3450 O   0  0  0  0  0  0  0  0  0  0  0  0
   35.3920   40.0340   22.7910 O   0  0  0  0  0  0  0  0  0  0  0  0
   35.6740   38.0650   23.9880 C   0  0  0  0  0  0  0  0  0  0  0  0
   35.1160   42.7660   24.0040 O   0  0  0  0  0  0  0  0  0  0  0  0
   34.8250   41.2550   22.6910 C   0  0  0  0  0  0  0  0  0  0  0  0
   32.8290   41.7220   23.9850 O   0  0  0  0  0  0  0  0  0  0  0  0
   34.2930   41.6220   24.0860 C   0  0  0  0  0  0  0  0  0  0  0  0
   34.6750   40.4830   25.0770 C   0  0  0  0  0  0  0  0  0  0  0  0
  1  5  1  0
  2  5  1  0
  2 10  1  0
  4  2  1  0
  6  9  1  0
  7  4  1  0
  7  9  1  0
  8  9  1  0
  9 10  1  0
 10  3  1  0
M  END
$$$$

     RDKit          3D

  8  7  0  0  0  0  0  0  0  0999 V2000
   34.7180   37.7510   26.6810 C   0  0  0  0  0  0  0  0  0  0  0  0
   32.9460   36.4070   27.8810 F   0  0  0  0  0  0  0  0  0  0  0  0
   34.2870   36.9600   27.7930 C   0  0  0  0  0  0  0  0  0  0  0  0
   33.3040   37.3060   28.5550 C   0  0  0  0  0  0  0  0  0  0  0  0
   33.5790   38.6550   26.3150 O   0  0  0  0  0  0  0  0  0  0  0  0
   32.7430   38.2490   29.0090 F   0  0  0  0  0  0  0  0  0  0  0  0
   33.2560   36.9720   29.7560 F   0  0  0  0  0  0  0  0  0  0  0  0
   35.6030   37.8710   25.7190 N   0  0  0  0  0  0  0  0  0  0  0  0
  1  3  1  0
  2  4  1  0
  3  4  1  0
  4  6  1  0
  4  7  1  0
  5  1  2  0
  8  1  1  0
M  END
$$$$

     RDKit          3D

  8  8  0  0  0  0  0  0  0  0999 V2000
   37.1710   41.7180   23.6620 C   0  0  0  0  0  0  0  0  0  0  0  0
   35.8110   41.9600   24.0760 C   0  0  0  0  0  0  0  0  0  0  0  0
   37.3230   40.3510   23.7640 O   0  0  0  0  0  0  0  0  0  0  0  0
   36.2200   43.3070   25.9070 O   0  0  0  0  0  0  0  0  0  0  0  0
   36.2190   41.5830   21.6900 O   0  0  0  0  0  0  0  0  0  0  0  0
   36.4430   42.3430   22.7300 C   0  0  0  0  0  0  0  0  0  0  0  0
   34.3080   42.1010   25.8760 O   0  0  0  0  0  0  0  0  0  0  0  0
   35.3380   43.1680   24.8340 C   0  0  0  0  0  0  0  0  0  0  0  0
  1  3  1  0
  1  2  1  0
  2  8  1  0
  6  5  1  0
  6  1  1  0
  6  2  1  0
  8  7  1  0
  8  4  1  0
M  END
$$$$

     RDKit          3D

  1  0  0  0  0  0  0  0  0  0999 V2000
  -27.0220   15.9740   65.6520 C   0  0  0  0  0  0  0  0  0  0  0  0
M  END
$$$$

     RDKit          3D

  9  8  0  0  0  0  0  0  0  0999 V2000
   35.5000   40.8470   25.1940 O   0  0  0  0  0  0  0  0  0  0  0  0
   35.4490   38.9100   23.7130 O   0  0  0  0  0  0  0  0  0  0  0  0
   35.1460   40.2780   23.9290 S   0  0  0  0  0  0  0  0  0  0  0  0
   31.9570   38.6450   23.0930 C   0  0  0  0  0  0  0  0  0  0  0  0
   35.4800   41.1550   22.7880 O   0  0  0  0  0  0  0  0  0  0  0  0
   32.3930   40.0720   23.5000 C   0  0  0  0  0  0  0  0  0  0  0  0
   32.8680   37.7820   22.9200 O   0  0  0  0  0  0  0  0  0  0  0  0
   30.8010   38.2800   23.3610 O   0  0  0  0  0  0  0  0  0  0  0  0
   33.3470   40.2030   24.1940 C   0  0  0  0  0  0  0  0  0  0  0  0
  2  3  1  0
  3  9  1  0
  3  1  1  0
  4  8  1  0
  4  6  1  0
  5  3  1  0
  6  9  1  0
  7  4  2  0
M  END
$$$$

     RDKit          3D

 11 11  0  0  0  0  0  0  0  0999 V2000
   35.7700   40.5100   25.2710 O   0  0  0  0  0  0  0  0  0  0  0  0
   34.2140   38.5280   23.8710 C   0  0  0  0  0  0  0  0  0  0  0  0
   36.6490   41.2590   22.7140 O   0  0  0  0  0  0  0  0  0  0  0  0
   32.6670   40.3540   23.7260 C   0  0  0  0  0  0  0  0  0  0  0  0
   34.7900   39.7030   23.1010 C   0  0  0  0  0  0  0  0  0  0  0  0
   32.9090   38.9130   24.3260 C   0  0  0  0  0  0  0  0  0  0  0  0
   37.3990   39.1220   23.8090 O   0  0  0  0  0  0  0  0  0  0  0  0
   31.8740   38.1390   23.6410 O   0  0  0  0  0  0  0  0  0  0  0  0
   34.9060   37.7420   24.7980 O   0  0  0  0  0  0  0  0  0  0  0  0
   33.8190   40.7780   23.0970 O   0  0  0  0  0  0  0  0  0  0  0  0
   36.2800   40.2320   23.8040 P   0  0  0  0  0  0  0  0  0  0  0  0
  2  6  1  0
  2  9  1  0
  3 11  2  0
  4  6  1  0
  5 11  1  0
  5  2  1  0
  6  8  1  0
 10  5  1  0
 10  4  1  0
 11  7  1  0
 11  1  1  0
M  END
$$$$

     RDKit          3D

 11 11  0  0  0  0  0  0  0  0999 V2000
   36.4720   41.7510   24.6090 C   0  0  0  0  0  0  0  0  0  0  0  0
   36.0810   39.3470   24.6180 N   0  0  0  0  0  0  0  0  0  0  0  0
   34.7880   38.6740   24.4970 C   0  0  0  0  0  0  0  0  0  0  0  0
   36.2180   40.5210   23.7680 C   0  0  0  0  0  0  0  0  0  0  0  0
   35.6480   41.5760   25.8760 C   0  0  0  0  0  0  0  0  0  0  0  0
   34.1720   41.8670   25.5700 C   0  0  0  0  0  0  0  0  0  0  0  0
   33.4010   40.7860   25.0580 N   0  0  0  0  0  0  0  0  0  0  0  0
   34.9420   37.3490   24.9810 O   0  0  0  0  0  0  0  0  0  0  0  0
   33.6730   39.3740   25.3010 C   0  0  0  0  0  0  0  0  0  0  0  0
   32.3350   38.7510   24.4840 C   0  0  0  0  0  0  0  0  0  0  0  0
   37.3310   40.4130   22.7860 C   0  0  0  0  0  0  0  0  0  0  0  0
  1  5  1  0
  3  2  1  0
  3  8  1  0
  3  9  1  0
  4 11  1  0
  4  1  1  0
  4  2  1  0
  6  5  1  0
  7  9  1  0
  7  6  1  0
  9 10  1  0
M  END
$$$$

     RDKit          3D

 19 21  0  0  0  0  0  0  0  0999 V2000
   36.8180   37.8490   33.3730 N   0  0  0  0  0  0  0  0  0  0  0  0
   33.0110   35.5410   32.3290 C   0  0  0  0  0  0  0  0  0  0  0  0
   37.0990   40.1880   30.0760 C   0  0  0  0  0  0  0  0  0  0  0  0
   36.0760   37.6440   26.4520 C   0  0  0  0  0  0  0  0  0  0  0  0
   35.8390   36.4910   26.9500 N   0  0  0  0  0  0  0  0  0  0  0  0
   36.1040   40.0490   28.9820 C   0  0  0  0  0  0  0  0  0  0  0  0
   34.3720   36.1560   30.4620 C   0  0  0  0  0  0  0  0  0  0  0  0
   36.1890   38.7070   27.1370 N   0  0  0  0  0  0  0  0  0  0  0  0
   36.1360   34.8290   26.9830 N   0  0  0  0  0  0  0  0  0  0  0  0
   35.3000   37.1660   30.3100 C   0  0  0  0  0  0  0  0  0  0  0  0
   36.0240   38.6460   28.4870 C   0  0  0  0  0  0  0  0  0  0  0  0
   35.5280   36.3850   28.2060 C   0  0  0  0  0  0  0  0  0  0  0  0
   35.5700   37.5480   28.9480 C   0  0  0  0  0  0  0  0  0  0  0  0
   35.8380   37.9100   31.2500 C   0  0  0  0  0  0  0  0  0  0  0  0
   36.6560   39.2050   31.1010 C   0  0  0  0  0  0  0  0  0  0  0  0
   35.6220   37.6130   32.6890 C   0  0  0  0  0  0  0  0  0  0  0  0
   34.0090   35.3510   31.5410 C   0  0  0  0  0  0  0  0  0  0  0  0
   33.6800   35.6060   29.3470 C   0  0  0  0  0  0  0  0  0  0  0  0
   34.6070   35.6800   28.6140 N   0  0  0  0  0  0  0  0  0  0  0  0
  3 15  1  0
  4  5  1  0
  4  8  1  0
  5  9  1  0
  5 12  1  0
  6  3  1  0
  7 17  1  0
  8 11  2  0
 10  7  1  0
 10 14  2  0
 11 13  1  0
 11  6  1  0
 12 19  1  0
 12 13  2  0
 13 10  1  0
 14 16  1  0
 15 14  1  0
 16  1  1  0
 17  2  2  0
 18  7  1  0
 19 18  1  0
M  END
$$$$

     RDKit          3D

 11 11  0  0  0  0  0  0  0  0999 V2000
   34.1740   36.5590   27.3080 C   0  0  0  0  0  0  0  0  0  0  0  0
   36.5160   37.6280   32.7840 C   0  0  0  0  0  0  0  0  0  0  0  0
   35.2700   38.6480   26.9810 C   0  0  0  0  0  0  0  0  0  0  0  0
   34.2500   36.8170   28.6670 C   0  0  0  0  0  0  0  0  0  0  0  0
   34.7290   37.4880   26.4470 C   0  0  0  0  0  0  0  0  0  0  0  0
   35.7720   38.6320   28.2990 C   0  0  0  0  0  0  0  0  0  0  0  0
   36.4120   38.0290   31.2890 C   0  0  0  0  0  0  0  0  0  0  0  0
   35.9100   37.2070   30.3550 N   0  0  0  0  0  0  0  0  0  0  0  0
   33.2550   36.2990   29.5750 C   0  0  0  0  0  0  0  0  0  0  0  0
   36.6720   39.1670   30.9720 O   0  0  0  0  0  0  0  0  0  0  0  0
   35.2930   37.6980   29.1050 C   0  0  0  0  0  0  0  0  0  0  0  0
  1  4  1  0
  3  6  2  0
  4 11  2  0
  4  9  1  0
  5  3  1  0
  5  1  2  0
  6 11  1  0
  7  2  1  0
  8  7  1  0
 10  7  2  0
 11  8  1  0
M  END
$$$$

     RDKit          3D

 16 15  0  0  0  0  0  0  0  0999 V2000
   37.6050   41.2080   23.1240 O   0  0  0  0  0  0  0  0  0  0  0  0
   37.6680   41.0010   24.5210 C   0  0  0  0  0  0  0  0  0  0  0  0
   35.9940   38.2790   27.8550 C   0  0  0  0  0  0  0  0  0  0  0  0
   37.5410   39.2910   26.2230 C   0  0  0  0  0  0  0  0  0  0  0  0
   36.5050   41.5870   24.5430 N   0  0  0  0  0  0  0  0  0  0  0  0
   34.0780   36.2220   31.8570 C   0  0  0  0  0  0  0  0  0  0  0  0
   32.5740   36.4590   31.8380 C   0  0  0  0  0  0  0  0  0  0  0  0
   37.1900   39.0340   27.3100 C   0  0  0  0  0  0  0  0  0  0  0  0
   37.2860   37.2760   29.6510 O   0  0  0  0  0  0  0  0  0  0  0  0
   36.4730   39.5500   29.9430 C   0  0  0  0  0  0  0  0  0  0  0  0
   35.0600   37.2710   31.4410 C   0  0  0  0  0  0  0  0  0  0  0  0
   38.7680   41.3680   25.3950 O   0  0  0  0  0  0  0  0  0  0  0  0
   34.6120   35.7170   33.2290 C   0  0  0  0  0  0  0  0  0  0  0  0
   34.8940   37.5820   29.9650 C   0  0  0  0  0  0  0  0  0  0  0  0
   37.5880   39.5550   24.9520 C   0  0  0  0  0  0  0  0  0  0  0  0
   36.1770   38.1440   29.3660 C   0  0  0  0  0  0  0  0  0  0  0  0
  1  2  1  0
  2  5  1  0
  2 15  1  0
  2 12  1  0
  3 16  1  0
  4  8  2  0
  6 13  1  0
  7  6  1  0
  8  3  1  0
 11  6  1  0
 14 11  1  0
 15  4  2  0
 16  9  1  0
 16 10  1  0
 16 14  1  0
M  END
$$$$

     RDKit          3D

 13 13  0  0  0  0  0  0  0  0999 V2000
   35.5730   39.1500   28.9150 C   0  0  0  0  0  0  0  0  0  0  0  0
   34.2830   39.8090   28.3950 C   0  0  0  0  0  0  0  0  0  0  0  0
   35.6560   37.8760   29.7360 C   0  0  0  0  0  0  0  0  0  0  0  0
   34.4460   40.3130   26.9300 C   0  0  0  0  0  0  0  0  0  0  0  0
   35.1080   41.6870   26.8980 N   0  0  0  0  0  0  0  0  0  0  0  0
   35.3830   34.1660   31.2400 F   0  0  0  0  0  0  0  0  0  0  0  0
   35.3020   35.4190   30.7580 C   0  0  0  0  0  0  0  0  0  0  0  0
   35.3530   36.4690   31.6430 C   0  0  0  0  0  0  0  0  0  0  0  0
   35.4380   35.6270   29.3720 C   0  0  0  0  0  0  0  0  0  0  0  0
   35.5820   36.8400   28.9180 N   0  0  0  0  0  0  0  0  0  0  0  0
   35.6840   37.7310   31.1250 C   0  0  0  0  0  0  0  0  0  0  0  0
   35.1830   34.5620   28.3250 C   0  0  0  0  0  0  0  0  0  0  0  0
   34.8770   36.2920   33.0430 C   0  0  0  0  0  0  0  0  0  0  0  0
  1  3  1  0
  2  1  1  0
  3 11  1  0
  4  2  1  0
  5  4  1  0
  7  6  1  0
  7  8  1  0
  8 13  1  0
  9  7  2  0
 10  9  1  0
 10  3  2  0
 11  8  2  0
 12  9  1  0
M  END
$$$$

     RDKit          3D

  9  8  0  0  0  0  0  0  0  0999 V2000
   33.6130   41.6750   20.7450 O   0  0  0  0  0  0  0  0  0  0  0  0
   32.9900   39.4500   24.3330 C   0  0  0  0  0  0  0  0  0  0  0  0
   34.1080   39.3940   22.2520 C   0  0  0  0  0  0  0  0  0  0  0  0
   34.5330   40.8110   22.9070 C   0  0  0  0  0  0  0  0  0  0  0  0
   35.6150   40.3790   23.6610 O   0  0  0  0  0  0  0  0  0  0  0  0
   33.7740   38.6760   23.4050 N   0  0  0  0  0  0  0  0  0  0  0  0
   33.5530   42.9490   22.2490 O   0  0  0  0  0  0  0  0  0  0  0  0
   34.6880   37.8920   23.7950 O   0  0  0  0  0  0  0  0  0  0  0  0
   33.7700   41.8450   22.0050 C   0  0  0  0  0  0  0  0  0  0  0  0
  1  9  2  0
  3  4  1  0
  3  6  1  0
  4  5  1  0
  6  8  1  0
  6  2  1  0
  9  7  1  0
  9  4  1  0
M  END
$$$$

     RDKit          3D

 23 22  0  0  0  0  0  0  0  0999 V2000
   37.5380   39.0950   27.0930 C   0  0  0  0  0  0  0  0  0  0  0  0
   39.8930   45.1190   29.3400 C   0  0  0  0  0  0  0  0  0  0  0  0
   32.6760   36.6370   30.4640 C   0  0  0  0  0  0  0  0  0  0  0  0
   37.5750   41.5640   26.6290 C   0  0  0  0  0  0  0  0  0  0  0  0
   39.9360   44.0710   28.2850 C   0  0  0  0  0  0  0  0  0  0  0  0
   35.5330   37.7650   30.1190 O   0  0  0  0  0  0  0  0  0  0  0  0
   34.5990   35.2980   29.2710 C   0  0  0  0  0  0  0  0  0  0  0  0
   33.5970   36.2580   29.3660 C   0  0  0  0  0  0  0  0  0  0  0  0
   30.5610   35.8250   31.0780 C   0  0  0  0  0  0  0  0  0  0  0  0
   38.8270   43.0230   28.1470 C   0  0  0  0  0  0  0  0  0  0  0  0
   36.4190   36.8750   29.9090 C   0  0  0  0  0  0  0  0  0  0  0  0
   37.3030   38.8830   28.5670 C   0  0  0  0  0  0  0  0  0  0  0  0
   38.3500   42.6480   26.8670 C   0  0  0  0  0  0  0  0  0  0  0  0
   37.9600   40.4320   27.3970 C   0  0  0  0  0  0  0  0  0  0  0  0
   38.7530   43.3010   25.8410 O   0  0  0  0  0  0  0  0  0  0  0  0
   35.9970   35.5330   29.9220 C   0  0  0  0  0  0  0  0  0  0  0  0
   37.8820   37.1720   30.1540 C   0  0  0  0  0  0  0  0  0  0  0  0
   28.7410   34.4100   31.5930 C   0  0  0  0  0  0  0  0  0  0  0  0
   31.5330   35.5090   30.5330 C   0  0  0  0  0  0  0  0  0  0  0  0
   29.2520   35.5060   31.0890 N   0  0  0  0  0  0  0  0  0  0  0  0
   36.9350   41.2750   25.4910 O   0  0  0  0  0  0  0  0  0  0  0  0
   38.4450   42.7090   29.3920 O   0  0  0  0  0  0  0  0  0  0  0  0
   38.2820   38.2010   29.0950 C   0  0  0  0  0  0  0  0  0  0  0  0
  1 14  1  0
  1 12  1  0
  3 19  1  0
  4 13  1  0
  4 14  2  3
  5  2  1  0
  7  8  1  0
  7 16  1  0
  8  3  1  0
  9 20  1  0
 10  5  1  0
 10 22  1  0
 11 16  1  0
 11  6  2  0
 11 17  1  0
 12 23  1  0
 13 10  1  0
 15 13  2  0
 19  9  1  0
 20 18  2  0
 21  4  1  0
 23 17  1  0
M  END
$$$$

     RDKit          3D

  9  9  0  0  0  0  0  0  0  0999 V2000
   32.8580   38.9040   22.2730 C   0  0  0  0  0  0  0  0  0  0  0  0
   33.4580   38.0960   21.5480 O   0  0  0  0  0  0  0  0  0  0  0  0
   33.2330   40.5730   24.2130 C   0  0  0  0  0  0  0  0  0  0  0  0
   33.8330   41.6460   21.8490 C   0  0  0  0  0  0  0  0  0  0  0  0
   34.8690   40.5610   22.1030 C   0  0  0  0  0  0  0  0  0  0  0  0
   33.5770   39.2500   23.6200 C   0  0  0  0  0  0  0  0  0  0  0  0
   31.8110   39.6500   22.1200 O   0  0  0  0  0  0  0  0  0  0  0  0
   34.8370   39.4680   22.9060 C   0  0  0  0  0  0  0  0  0  0  0  0
   34.2530   39.7760   24.9770 C   0  0  0  0  0  0  0  0  0  0  0  0
  1  6  1  0
  2  1  2  0
  3  9  1  0
  4  5  1  0
  5  8  2  3
  6  3  1  0
  6  9  1  0
  7  1  1  0
  8  6  1  0
M  END
$$$$
