
     RDKit          3D

 12 11  0  0  0  0  0  0  0  0999 V2000
   42.7470   40.2040   30.7590 O   0  0  0  0  0  0  0  0  0  0  0  0
   42.2650   39.2730   28.5310 O   0  0  0  0  0  0  0  0  0  0  0  0
   43.1730   37.6820   30.3530 O   0  0  0  0  0  0  0  0  0  0  0  0
   40.4980   37.8880   26.7920 C   0  0  0  0  0  0  0  0  0  0  0  0
   41.1000   38.4780   28.7850 C   0  0  0  0  0  0  0  0  0  0  0  0
   41.0320   40.1700   26.2500 O   0  0  0  0  0  0  0  0  0  0  0  0
   41.8590   36.0940   27.2960 O   0  0  0  0  0  0  0  0  0  0  0  0
   39.7340   37.1660   26.0130 O   0  0  0  0  0  0  0  0  0  0  0  0
   41.1310   37.1860   27.9510 C   0  0  0  0  0  0  0  0  0  0  0  0
   44.5270   39.6070   29.4220 O   0  0  0  0  0  0  0  0  0  0  0  0
   43.2210   39.0910   29.8890 P   0  0  0  0  0  0  0  0  0  0  0  0
   41.4390   38.9000   26.3060 C   0  0  0  0  0  0  0  0  0  0  0  0
  2  5  1  0
  2 11  1  0
  4  8  1  0
  4  9  1  0
  6 12  1  0
  9  7  1  0
  9  5  1  0
 10 11  2  0
 11  3  1  0
 11  1  1  0
 12  4  1  0
M  END
$$$$

     RDKit          3D

 13 13  0  0  0  0  0  0  0  0999 V2000
   39.3560   37.7140   29.8040 P   0  0  0  0  0  0  0  0  0  0  0  0
   40.1340   39.9870   26.2570 O   0  0  0  0  0  0  0  0  0  0  0  0
   38.4520   41.3670   26.7570 O   0  0  0  0  0  0  0  0  0  0  0  0
   39.0580   40.2580   26.8250 C   0  0  0  0  0  0  0  0  0  0  0  0
   37.8550   39.4580   28.7200 C   0  0  0  0  0  0  0  0  0  0  0  0
   40.2830   35.8260   28.0330 C   0  0  0  0  0  0  0  0  0  0  0  0
   40.3240   38.6340   30.3900 O   0  0  0  0  0  0  0  0  0  0  0  0
   40.2750   33.7740   30.1050 C   0  0  0  0  0  0  0  0  0  0  0  0
   39.3910   34.9980   30.1990 C   0  0  0  0  0  0  0  0  0  0  0  0
   40.0300   36.2190   29.5910 C   0  0  0  0  0  0  0  0  0  0  0  0
   38.7350   38.2560   28.3860 C   0  0  0  0  0  0  0  0  0  0  0  0
   38.2080   37.5770   30.7150 O   0  0  0  0  0  0  0  0  0  0  0  0
   38.2690   39.1310   27.3400 C   0  0  0  0  0  0  0  0  0  0  0  0
  1  7  2  0
  1 12  1  0
  2  4  2  0
  3  4  1  0
  8  9  1  0
 10  6  1  0
 10  1  1  0
 10  9  1  0
 11  5  1  0
 11  1  1  0
 13  4  1  0
 13 11  1  0
 13  5  1  0
M  END
$$$$

     RDKit          3D

 11 11  0  0  0  0  0  0  0  0999 V2000
   40.8810   36.6390   28.5540 C   0  0  0  0  0  0  0  0  0  0  0  0
   41.4220   37.9760   28.0410 C   0  0  0  0  0  0  0  0  0  0  0  0
   38.6060   38.2370   28.1980 N   0  0  0  0  0  0  0  0  0  0  0  0
   38.7270   39.6820   26.5700 O   0  0  0  0  0  0  0  0  0  0  0  0
   39.6810   36.4310   29.3250 N   0  0  0  0  0  0  0  0  0  0  0  0
   39.6700   35.3670   30.2800 C   0  0  0  0  0  0  0  0  0  0  0  0
   40.6270   38.5800   27.0540 O   0  0  0  0  0  0  0  0  0  0  0  0
   39.3200   38.8610   27.3060 C   0  0  0  0  0  0  0  0  0  0  0  0
   37.6170   36.8930   29.7250 O   0  0  0  0  0  0  0  0  0  0  0  0
   38.6210   37.1760   29.1050 C   0  0  0  0  0  0  0  0  0  0  0  0
   42.6650   37.5540   27.2250 C   0  0  0  0  0  0  0  0  0  0  0  0
  1  5  1  0
  2 11  1  0
  2  1  1  0
  3 10  1  0
  4  8  2  0
  5  6  1  0
  7  8  1  0
  7  2  1  0
  8  3  1  0
 10  5  1  0
 10  9  2  0
M  END
$$$$

     RDKit          3D

 18 19  0  0  0  0  0  0  0  0999 V2000
   33.7150   37.8130   28.1650 C   0  0  0  0  0  0  0  0  0  0  0  0
   35.6220   33.4780   30.8860 C   0  0  0  0  0  0  0  0  0  0  0  0
   34.3330   36.9450   28.9840 N   0  0  0  0  0  0  0  0  0  0  0  0
   35.7160   31.9390   32.5130 P   0  0  0  0  0  0  0  0  0  0  0  0
   34.7800   31.1370   31.7190 O   0  0  0  0  0  0  0  0  0  0  0  0
   37.8320   30.6420   31.4300 C   0  0  0  0  0  0  0  0  0  0  0  0
   33.8920   37.2590   30.1080 C   0  0  0  0  0  0  0  0  0  0  0  0
   34.5680   36.1180   33.1810 O   0  0  0  0  0  0  0  0  0  0  0  0
   37.9030   29.4970   32.4140 C   0  0  0  0  0  0  0  0  0  0  0  0
   35.5180   34.7780   31.3300 C   0  0  0  0  0  0  0  0  0  0  0  0
   34.0520   36.5080   31.1970 N   0  0  0  0  0  0  0  0  0  0  0  0
   38.1790   30.4150   29.9840 C   0  0  0  0  0  0  0  0  0  0  0  0
   35.7490   31.6060   33.9240 O   0  0  0  0  0  0  0  0  0  0  0  0
   37.1530   31.7590   31.9120 O   0  0  0  0  0  0  0  0  0  0  0  0
   34.9930   36.0290   31.8990 C   0  0  0  0  0  0  0  0  0  0  0  0
   32.7730   38.1410   30.0510 C   0  0  0  0  0  0  0  0  0  0  0  0
   35.4170   33.6750   32.3510 C   0  0  0  0  0  0  0  0  0  0  0  0
   32.6750   38.4870   28.7920 N   0  0  0  0  0  0  0  0  0  0  0  0
  1 18  1  0
  1  3  1  0
  2 10  1  0
  2 17  1  0
  3  7  2  0
  4  5  2  0
  4 13  1  0
  6 14  1  0
  6  9  1  0
  7 11  1  0
 10 15  1  0
 10 17  1  0
 11 15  1  0
 12  6  1  0
 14  4  1  0
 15  8  1  0
 16  7  1  0
 17  4  1  0
 18 16  1  0
M  END
$$$$

     RDKit          3D

 29 33  0  0  0  0  0  0  0  0999 V2000
   34.5920   32.7870   33.4990 C   0  0  0  0  0  0  0  0  0  0  0  0
   41.6320   39.2360   29.3220 C   0  0  0  0  0  0  0  0  0  0  0  0
   32.6590   33.8510   30.7640 O   0  0  0  0  0  0  0  0  0  0  0  0
   41.4240   39.9470   28.1390 C   0  0  0  0  0  0  0  0  0  0  0  0
   42.6990   42.1780   26.3850 C   0  0  0  0  0  0  0  0  0  0  0  0
   40.2580   37.0580   28.7660 C   0  0  0  0  0  0  0  0  0  0  0  0
   30.3160   32.4170   28.3580 C   0  0  0  0  0  0  0  0  0  0  0  0
   40.2600   37.6150   31.1640 C   0  0  0  0  0  0  0  0  0  0  0  0
   38.7490   34.4970   29.8040 N   0  0  0  0  0  0  0  0  0  0  0  0
   42.8780   41.3520   25.1510 O   0  0  0  0  0  0  0  0  0  0  0  0
   39.8910   36.5370   30.1730 C   0  0  0  0  0  0  0  0  0  0  0  0
   31.9840   33.2170   29.9710 C   0  0  0  0  0  0  0  0  0  0  0  0
   37.9540   35.7910   31.4780 N   0  0  0  0  0  0  0  0  0  0  0  0
   38.8170   35.6090   30.4250 C   0  0  0  0  0  0  0  0  0  0  0  0
   36.2900   33.9440   31.4030 C   0  0  0  0  0  0  0  0  0  0  0  0
   42.1280   40.7850   27.5040 N   0  0  0  0  0  0  0  0  0  0  0  0
   32.5470   32.3000   30.3160 O   0  0  0  0  0  0  0  0  0  0  0  0
   36.6060   35.3440   31.2420 C   0  0  0  0  0  0  0  0  0  0  0  0
   42.0620   41.0470   26.1680 C   0  0  0  0  0  0  0  0  0  0  0  0
   40.4890   39.7700   27.0740 C   0  0  0  0  0  0  0  0  0  0  0  0
   34.9650   33.6140   31.3310 N   0  0  0  0  0  0  0  0  0  0  0  0
   30.2190   34.6070   29.5270 O   0  0  0  0  0  0  0  0  0  0  0  0
   40.4580   38.5080   28.8560 C   0  0  0  0  0  0  0  0  0  0  0  0
   34.1510   33.0400   32.1850 C   0  0  0  0  0  0  0  0  0  0  0  0
   40.8010   40.2640   25.9350 C   0  0  0  0  0  0  0  0  0  0  0  0
   33.8610   34.2880   31.3180 C   0  0  0  0  0  0  0  0  0  0  0  0
   42.5250   38.1950   30.0170 C   0  0  0  0  0  0  0  0  0  0  0  0
   41.6790   37.7930   31.2190 C   0  0  0  0  0  0  0  0  0  0  0  0
   30.7770   33.5730   29.2890 C   0  0  0  0  0  0  0  0  0  0  0  0
  2 27  1  0
  4 20  1  0
  4 23  1  0
  4  2  1  0
  6 11  1  0
  7 29  1  0
  8 28  1  0
  9 14  2  0
 10 19  1  0
 10  5  1  0
 11 14  1  0
 11  8  1  0
 12 17  2  0
 12  3  1  0
 14 13  1  0
 16  4  1  0
 18 15  2  3
 18 13  1  0
 19 25  1  0
 19  5  1  0
 19 16  1  0
 21 15  1  0
 21 24  1  0
 23  6  1  0
 23  2  1  0
 24  1  1  0
 25 20  1  0
 26  3  1  0
 26 21  1  0
 26 24  1  0
 27 28  1  0
 29 22  2  0
 29 12  1  0
M  END
$$$$

     RDKit          3D

 34 34  0  0  0  0  0  0  0  0999 V2000
   37.8560   31.8680   32.1440 C   0  0  0  0  0  0  0  0  0  0  0  0
   40.0250   38.9560   28.7960 C   0  0  0  0  0  0  0  0  0  0  0  0
   38.7050   38.3570   28.3580 C   0  0  0  0  0  0  0  0  0  0  0  0
   43.2510   41.4740   31.2560 S   0  0  0  0  0  0  0  0  0  0  0  0
   31.9610   32.6540   31.5050 O   0  0  0  0  0  0  0  0  0  0  0  0
   41.7770   41.4500   32.0290 C   0  0  0  0  0  0  0  0  0  0  0  0
   35.7180   32.0350   33.3160 C   0  0  0  0  0  0  0  0  0  0  0  0
   43.9130   42.9640   31.4470 C   0  0  0  0  0  0  0  0  0  0  0  0
   32.2320   32.3440   28.4810 C   0  0  0  0  0  0  0  0  0  0  0  0
   38.5220   37.0600   28.8560 N   0  0  0  0  0  0  0  0  0  0  0  0
   40.9670   38.2940   29.2350 O   0  0  0  0  0  0  0  0  0  0  0  0
   33.4210   31.9140   28.5560 O   0  0  0  0  0  0  0  0  0  0  0  0
   33.3210   32.8330   33.3210 O   0  0  0  0  0  0  0  0  0  0  0  0
   37.5040   32.9190   31.2950 C   0  0  0  0  0  0  0  0  0  0  0  0
   43.1880   41.2240   29.5400 C   0  0  0  0  0  0  0  0  0  0  0  0
   32.0350   33.4340   30.5760 C   0  0  0  0  0  0  0  0  0  0  0  0
   41.8430   41.8560   29.2040 C   0  0  0  0  0  0  0  0  0  0  0  0
   38.2010   35.5690   31.0060 O   0  0  0  0  0  0  0  0  0  0  0  0
   37.4260   30.7750   34.1620 F   0  0  0  0  0  0  0  0  0  0  0  0
   31.3920   32.1330   27.6980 O   0  0  0  0  0  0  0  0  0  0  0  0
   36.2790   33.5380   31.4970 C   0  0  0  0  0  0  0  0  0  0  0  0
   33.9980   33.2450   32.3230 C   0  0  0  0  0  0  0  0  0  0  0  0
   35.9720   34.7450   30.7690 C   0  0  0  0  0  0  0  0  0  0  0  0
   41.2220   40.9920   28.2680 N   0  0  0  0  0  0  0  0  0  0  0  0
   35.3420   32.9900   32.3660 C   0  0  0  0  0  0  0  0  0  0  0  0
   31.5310   33.2820   29.2030 C   0  0  0  0  0  0  0  0  0  0  0  0
   38.9150   40.9950   28.9450 O   0  0  0  0  0  0  0  0  0  0  0  0
   33.3520   33.6030   31.0710 C   0  0  0  0  0  0  0  0  0  0  0  0
   38.1190   41.8460   28.2430 C   0  0  0  0  0  0  0  0  0  0  0  0
   37.1810   36.7390   29.2760 C   0  0  0  0  0  0  0  0  0  0  0  0
   36.9960   31.5220   33.1930 C   0  0  0  0  0  0  0  0  0  0  0  0
   43.8200   40.4620   32.0030 O   0  0  0  0  0  0  0  0  0  0  0  0
   37.1840   35.7080   30.3870 C   0  0  0  0  0  0  0  0  0  0  0  0
   40.0910   40.3530   28.6030 C   0  0  0  0  0  0  0  0  0  0  0  0
  1 31  1  0
  2 11  2  0
  3  2  1  0
  3 10  1  0
  4  8  1  0
  4 32  1  0
  4  6  1  0
  9 12  1  0
  9 26  1  0
 10 30  1  0
 14 21  1  0
 14  1  2  0
 15  4  1  0
 16 28  1  0
 16  5  1  0
 17 15  1  0
 20  9  2  0
 21 25  2  0
 22 25  1  0
 22 13  2  0
 23 21  1  0
 24 17  1  0
 25  7  1  0
 26 16  1  0
 28 22  1  0
 29 27  1  0
 30 33  1  0
 31  7  2  0
 31 19  1  0
 33 23  1  0
 33 18  2  0
 34 24  1  0
 34  2  1  0
 34 27  1  0
M  END
$$$$

     RDKit          3D

 27 30  0  0  0  0  0  0  0  0999 V2000
   39.8820   36.0150   28.6740 N   0  0  0  0  0  0  0  0  0  0  0  0
   30.0760   34.3270   29.1610 O   0  0  0  0  0  0  0  0  0  0  0  0
   33.3710   35.2790   31.9140 C   0  0  0  0  0  0  0  0  0  0  0  0
   42.9450   39.7260   28.9600 C   0  0  0  0  0  0  0  0  0  0  0  0
   35.3550   35.8330   30.6980 C   0  0  0  0  0  0  0  0  0  0  0  0
   31.5730   34.1880   32.1340 C   0  0  0  0  0  0  0  0  0  0  0  0
   39.6720   38.2140   29.4450 C   0  0  0  0  0  0  0  0  0  0  0  0
   32.6940   34.6600   33.0160 N   0  0  0  0  0  0  0  0  0  0  0  0
   32.0210   35.4170   29.7640 C   0  0  0  0  0  0  0  0  0  0  0  0
   36.7230   35.4390   30.8930 C   0  0  0  0  0  0  0  0  0  0  0  0
   41.0440   38.0990   28.7310 C   0  0  0  0  0  0  0  0  0  0  0  0
   39.9270   37.1950   28.8350 C   0  0  0  0  0  0  0  0  0  0  0  0
   37.9610   36.0500   30.0980 C   0  0  0  0  0  0  0  0  0  0  0  0
   34.6130   34.9900   31.6280 C   0  0  0  0  0  0  0  0  0  0  0  0
   41.7870   39.2050   29.5970 C   0  0  0  0  0  0  0  0  0  0  0  0
   34.9570   36.9480   29.7920 C   0  0  0  0  0  0  0  0  0  0  0  0
   35.3610   32.8700   33.3530 Br  0  0  0  0  0  0  0  0  0  0  0  0
   41.0310   37.6770   27.2270 C   0  0  0  0  0  0  0  0  0  0  0  0
   43.4820   39.3480   27.8270 N   0  0  0  0  0  0  0  0  0  0  0  0
   41.7970   38.5670   26.2680 C   0  0  0  0  0  0  0  0  0  0  0  0
   42.4140   39.7370   26.9370 C   0  0  0  0  0  0  0  0  0  0  0  0
   35.5460   34.1870   32.2890 C   0  0  0  0  0  0  0  0  0  0  0  0
   36.8370   34.4540   31.8400 C   0  0  0  0  0  0  0  0  0  0  0  0
   31.3710   32.8200   32.2630 O   0  0  0  0  0  0  0  0  0  0  0  0
   39.0310   35.2980   29.6530 C   0  0  0  0  0  0  0  0  0  0  0  0
   32.3200   34.7580   30.9760 C   0  0  0  0  0  0  0  0  0  0  0  0
   30.4600   35.4280   29.7350 C   0  0  0  0  0  0  0  0  0  0  0  0
  1 25  1  0
  2 27  1  0
  3  8  1  0
  4 15  1  0
  5 10  2  0
  6 24  1  0
  6  8  1  0
 10 23  1  0
 11 18  1  0
 11 12  1  0
 11  7  1  0
 11 15  1  0
 12  1  1  0
 12  7  1  0
 13 10  1  0
 14  5  1  0
 14  3  1  0
 14 22  1  0
 16  5  1  0
 19  4  1  0
 20 21  1  0
 20 18  1  0
 21 19  1  0
 22 17  1  0
 23 22  2  0
 25 13  1  0
 26  9  1  0
 26  3  1  0
 26  6  1  0
 27  9  1  0
M  END
$$$$

     RDKit          3D

  4  3  0  0  0  0  0  0  0  0999 V2000
   37.3160   35.8850   29.5580 C   0  0  0  0  0  0  0  0  0  0  0  0
   37.0480   36.8260   30.2170 O   0  0  0  0  0  0  0  0  0  0  0  0
   37.4640   36.0210   28.3000 F   0  0  0  0  0  0  0  0  0  0  0  0
   37.1140   34.6240   29.7830 F   0  0  0  0  0  0  0  0  0  0  0  0
  1  4  1  0
  1  2  2  0
  3  1  1  0
M  END
$$$$

     RDKit          3D

  7  6  0  0  0  0  0  0  0  0999 V2000
   40.5850   39.4060   27.4900 C   0  0  0  0  0  0  0  0  0  0  0  0
   41.4730   35.8080   27.2970 C   0  0  0  0  0  0  0  0  0  0  0  0
   40.9200   36.9970   27.6800 C   0  0  0  0  0  0  0  0  0  0  0  0
   41.0000   38.1310   28.1590 N   0  0  0  0  0  0  0  0  0  0  0  0
   40.1110   39.1030   26.0950 C   0  0  0  0  0  0  0  0  0  0  0  0
   39.2030   40.1840   25.5380 C   0  0  0  0  0  0  0  0  0  0  0  0
   41.8670   38.0480   29.3600 C   0  0  0  0  0  0  0  0  0  0  0  0
  1  4  1  0
  2  3  2  0
  3  4  1  0
  4  7  1  0
  5  1  1  0
  6  5  1  0
M  END
$$$$

     RDKit          3D

  9  9  0  0  0  0  0  0  0  0999 V2000
   39.4200   37.9070   29.4070 O   0  0  0  0  0  0  0  0  0  0  0  0
   38.1180   34.5280   30.3070 C   0  0  0  0  0  0  0  0  0  0  0  0
   40.7230   35.4670   29.4750 Cl  0  0  0  0  0  0  0  0  0  0  0  0
   38.5620   36.9700   29.8860 C   0  0  0  0  0  0  0  0  0  0  0  0
   39.0520   35.5420   29.9910 C   0  0  0  0  0  0  0  0  0  0  0  0
   37.2890   37.2350   30.3060 C   0  0  0  0  0  0  0  0  0  0  0  0
   36.6760   34.9380   30.4890 C   0  0  0  0  0  0  0  0  0  0  0  0
   36.5090   36.1430   30.5470 C   0  0  0  0  0  0  0  0  0  0  0  0
   34.6220   36.7290   30.4200 Cl  0  0  0  0  0  0  0  0  0  0  0  0
  1  4  1  0
  2  7  1  0
  3  5  1  0
  4  5  1  0
  4  6  2  0
  5  2  2  0
  6  8  1  0
  7  8  2  0
  9  8  1  0
M  END
$$$$

     RDKit          3D

  8  7  0  0  0  0  0  0  0  0999 V2000
   37.8800   37.4370   27.3070 O   0  0  0  0  0  0  0  0  0  0  0  0
   39.6820   36.8870   26.0920 C   0  0  0  0  0  0  0  0  0  0  0  0
   40.8460   36.4720   26.1620 C   0  0  0  0  0  0  0  0  0  0  0  0
   36.7450   38.8520   25.4510 O   0  0  0  0  0  0  0  0  0  0  0  0
   35.6700   38.3010   25.5780 C   0  0  0  0  0  0  0  0  0  0  0  0
   38.5750   37.5310   26.2310 C   0  0  0  0  0  0  0  0  0  0  0  0
   35.3500   37.6120   24.4170 C   0  0  0  0  0  0  0  0  0  0  0  0
   38.0100   38.2260   25.0390 C   0  0  0  0  0  0  0  0  0  0  0  0
  2  3  3  0
  2  6  1  0
  4  5  1  0
  6  1  2  0
  7  5  1  0
  8  4  1  0
  8  6  1  0
M  END
$$$$

     RDKit          3D

 17 18  0  0  0  0  0  0  0  0999 V2000
   40.7560   35.0260   30.3250 C   0  0  0  0  0  0  0  0  0  0  0  0
   36.0310   31.8870   33.2890 N   0  0  0  0  0  0  0  0  0  0  0  0
   42.3010   36.9570   29.2950 C   0  0  0  0  0  0  0  0  0  0  0  0
   43.2410   37.1120   28.5210 O   0  0  0  0  0  0  0  0  0  0  0  0
   37.9610   32.4980   31.8920 C   0  0  0  0  0  0  0  0  0  0  0  0
   39.2600   34.7980   30.4570 C   0  0  0  0  0  0  0  0  0  0  0  0
   35.7900   35.8990   30.6090 N   0  0  0  0  0  0  0  0  0  0  0  0
   41.8430   38.0680   29.7870 O   0  0  0  0  0  0  0  0  0  0  0  0
   38.2750   35.7260   30.0210 C   0  0  0  0  0  0  0  0  0  0  0  0
   36.3950   34.6000   31.2900 C   0  0  0  0  0  0  0  0  0  0  0  0
   41.4300   35.7320   29.1730 C   0  0  0  0  0  0  0  0  0  0  0  0
   38.8300   33.5050   31.1370 C   0  0  0  0  0  0  0  0  0  0  0  0
   36.9760   35.4090   30.5910 C   0  0  0  0  0  0  0  0  0  0  0  0
   34.8950   36.4160   31.4580 O   0  0  0  0  0  0  0  0  0  0  0  0
   35.7760   33.8320   32.1100 C   0  0  0  0  0  0  0  0  0  0  0  0
   36.5460   32.7220   32.4610 C   0  0  0  0  0  0  0  0  0  0  0  0
   35.3430   36.6580   29.4150 C   0  0  0  0  0  0  0  0  0  0  0  0
  1  6  1  0
  3  8  1  0
  4  3  2  0
  5 16  1  0
  6 12  2  0
  7 10  1  0
  7 14  1  0
  9  6  1  0
 10 15  1  0
 11  3  1  0
 11  1  1  0
 12  5  2  0
 13  9  1  0
 13  7  1  0
 13 10  1  0
 15 16  1  0
 16  2  2  0
 17  7  1  0
M  END
$$$$

     RDKit          3D

 24 27  0  0  0  0  0  0  0  0999 V2000
   38.2700   35.3200   30.1390 C   0  0  0  0  0  0  0  0  0  0  0  0
   37.6950   36.4920   29.5020 C   0  0  0  0  0  0  0  0  0  0  0  0
   33.6400   34.2290   30.7250 N   0  0  0  0  0  0  0  0  0  0  0  0
   34.7900   32.5800   32.2380 C   0  0  0  0  0  0  0  0  0  0  0  0
   41.5390   38.0950   27.1830 C   0  0  0  0  0  0  0  0  0  0  0  0
   37.3930   34.3290   30.9330 C   0  0  0  0  0  0  0  0  0  0  0  0
   36.1490   32.1240   32.7780 C   0  0  0  0  0  0  0  0  0  0  0  0
   37.9960   33.1640   31.4640 C   0  0  0  0  0  0  0  0  0  0  0  0
   35.4070   35.6060   30.1560 C   0  0  0  0  0  0  0  0  0  0  0  0
   39.9260   35.2740   29.7300 S   0  0  0  0  0  0  0  0  0  0  0  0
   36.3260   36.6680   29.6290 C   0  0  0  0  0  0  0  0  0  0  0  0
   39.6220   38.8270   25.6660 O   0  0  0  0  0  0  0  0  0  0  0  0
   33.9970   35.4260   30.0560 N   0  0  0  0  0  0  0  0  0  0  0  0
   40.7220   38.0350   25.6810 S   0  0  0  0  0  0  0  0  0  0  0  0
   40.1460   36.6820   28.7930 C   0  0  0  0  0  0  0  0  0  0  0  0
   31.6750   35.7910   29.3250 N   0  0  0  0  0  0  0  0  0  0  0  0
   34.8250   33.8880   31.4660 C   0  0  0  0  0  0  0  0  0  0  0  0
   37.2220   31.9530   31.7610 C   0  0  0  0  0  0  0  0  0  0  0  0
   35.9580   34.5860   30.9080 C   0  0  0  0  0  0  0  0  0  0  0  0
   41.7830   38.7580   24.6820 C   0  0  0  0  0  0  0  0  0  0  0  0
   41.5470   36.9520   28.2090 C   0  0  0  0  0  0  0  0  0  0  0  0
   40.4960   36.6680   25.3120 O   0  0  0  0  0  0  0  0  0  0  0  0
   38.8080   37.2860   28.8680 C   0  0  0  0  0  0  0  0  0  0  0  0
   33.0780   36.1780   29.1040 C   0  0  0  0  0  0  0  0  0  0  0  0
  1  6  1  0
  2 11  1  0
  2  1  2  0
  3 17  1  0
  4  7  1  0
  5 21  1  0
  6  8  1  0
  8 18  1  0
  9 19  1  0
 10  1  1  0
 11  9  2  0
 12 14  2  0
 13  9  1  0
 13  3  1  0
 14  5  1  0
 15 23  2  0
 15 10  1  0
 17  4  1  0
 18  7  1  0
 19  6  2  0
 19 17  1  0
 20 14  1  0
 21 15  1  0
 22 14  2  0
 23  2  1  0
 24 16  1  0
 24 13  1  0
M  END
$$$$

     RDKit          3D

 32 34  0  0  0  0  0  0  0  0999 V2000
   35.9710   30.4310   34.0520 N   0  0  0  0  0  0  0  0  0  0  0  0
   43.2740   39.5670   29.4020 C   0  0  0  0  0  0  0  0  0  0  0  0
   41.4760   36.7840   28.1510 C   0  0  0  0  0  0  0  0  0  0  0  0
   31.4160   35.9730   29.6140 C   0  0  0  0  0  0  0  0  0  0  0  0
   32.7710   35.9790   29.0980 C   0  0  0  0  0  0  0  0  0  0  0  0
   37.6010   37.8390   29.8490 C   0  0  0  0  0  0  0  0  0  0  0  0
   40.6240   38.3390   29.6320 C   0  0  0  0  0  0  0  0  0  0  0  0
   32.8040   35.0330   31.2270 C   0  0  0  0  0  0  0  0  0  0  0  0
   44.2680   41.3800   30.8030 C   0  0  0  0  0  0  0  0  0  0  0  0
   31.5410   32.9140   32.5060 C   0  0  0  0  0  0  0  0  0  0  0  0
   35.3180   31.6100   33.4680 C   0  0  0  0  0  0  0  0  0  0  0  0
   34.7150   35.8580   30.3600 N   0  0  0  0  0  0  0  0  0  0  0  0
   33.5670   34.2680   32.1880 C   0  0  0  0  0  0  0  0  0  0  0  0
   44.7480   41.0060   28.4010 O   0  0  0  0  0  0  0  0  0  0  0  0
   33.5500   35.5590   30.1390 C   0  0  0  0  0  0  0  0  0  0  0  0
   43.7550   37.2670   29.0630 O   0  0  0  0  0  0  0  0  0  0  0  0
   42.9880   38.3970   28.6080 C   0  0  0  0  0  0  0  0  0  0  0  0
   34.9730   34.2550   32.2730 C   0  0  0  0  0  0  0  0  0  0  0  0
   32.9760   33.1470   32.9090 C   0  0  0  0  0  0  0  0  0  0  0  0
   36.3400   32.6420   33.3110 C   0  0  0  0  0  0  0  0  0  0  0  0
   36.2500   37.5110   29.8790 C   0  0  0  0  0  0  0  0  0  0  0  0
   44.0070   39.9630   30.5300 C   0  0  0  0  0  0  0  0  0  0  0  0
   41.6720   38.0250   28.8180 N   0  0  0  0  0  0  0  0  0  0  0  0
   38.5860   36.9590   29.8370 C   0  0  0  0  0  0  0  0  0  0  0  0
   35.9580   33.9940   32.7930 C   0  0  0  0  0  0  0  0  0  0  0  0
   44.7250   39.9120   29.1740 C   0  0  0  0  0  0  0  0  0  0  0  0
   39.8200   37.3440   29.6980 N   0  0  0  0  0  0  0  0  0  0  0  0
   36.9960   35.2490   30.2090 C   0  0  0  0  0  0  0  0  0  0  0  0
   31.3720   35.4010   30.9810 N   0  0  0  0  0  0  0  0  0  0  0  0
   35.9390   36.1910   30.1170 C   0  0  0  0  0  0  0  0  0  0  0  0
   30.5940   32.3700   33.2650 C   0  0  0  0  0  0  0  0  0  0  0  0
   38.2540   35.6660   29.9760 C   0  0  0  0  0  0  0  0  0  0  0  0
  2 17  1  0
  2 22  1  0
  3 23  1  0
  4 29  1  0
  5  4  1  0
  5 15  1  0
  6 21  1  0
  7 27  1  0
  8 13  1  0
 10 19  1  0
 10 31  2  0
 11  1  1  0
 13 18  1  0
 13 19  1  0
 15 12  1  0
 15  8  1  0
 17 23  1  0
 17 16  1  0
 18 25  1  0
 20 11  1  0
 21 30  2  0
 22  9  1  0
 23  7  1  0
 24  6  2  0
 24 32  1  0
 25 20  2  3
 26 14  1  0
 26  2  1  0
 26 22  1  0
 27 24  1  0
 29  8  1  0
 30 28  1  0
 30 12  1  0
 32 28  2  0
M  END
$$$$

     RDKit          3D

 10 10  0  0  0  0  0  0  0  0999 V2000
   35.5690   34.8240   30.0950 S   0  0  0  0  0  0  0  0  0  0  0  0
   33.8010   36.6720   29.6400 C   0  0  0  0  0  0  0  0  0  0  0  0
   40.1920   36.8610   29.2420 N   0  0  0  0  0  0  0  0  0  0  0  0
   38.7880   37.1250   29.4830 C   0  0  0  0  0  0  0  0  0  0  0  0
   38.0690   36.1590   30.3580 C   0  0  0  0  0  0  0  0  0  0  0  0
   32.8260   35.8990   28.7780 C   0  0  0  0  0  0  0  0  0  0  0  0
   38.8340   34.7750   30.4860 C   0  0  0  0  0  0  0  0  0  0  0  0
   35.7750   37.8020   30.2060 C   0  0  0  0  0  0  0  0  0  0  0  0
   36.6620   35.6570   30.1670 C   0  0  0  0  0  0  0  0  0  0  0  0
   35.2550   36.3750   30.0740 C   0  0  0  0  0  0  0  0  0  0  0  0
  1  9  1  0
  2 10  1  0
  3  4  1  0
  4  5  1  0
  5  7  1  0
  6  2  1  0
  9  5  1  0
 10  1  1  0
 10  9  1  0
 10  8  1  0
M  END
$$$$

     RDKit          3D

 25 29  0  0  0  0  0  0  0  0999 V2000
   37.4900   35.7200   29.5030 C   0  0  0  0  0  0  0  0  0  0  0  0
   30.6470   34.5210   31.1360 N   0  0  0  0  0  0  0  0  0  0  0  0
   33.0020   35.0320   29.8770 C   0  0  0  0  0  0  0  0  0  0  0  0
   31.2530   33.5350   30.4780 C   0  0  0  0  0  0  0  0  0  0  0  0
   42.3680   39.0300   28.8410 C   0  0  0  0  0  0  0  0  0  0  0  0
   34.4710   35.0790   29.8010 N   0  0  0  0  0  0  0  0  0  0  0  0
   35.0570   36.4210   29.8800 C   0  0  0  0  0  0  0  0  0  0  0  0
   41.9700   37.6400   28.9810 C   0  0  0  0  0  0  0  0  0  0  0  0
   38.4150   37.8320   29.2740 C   0  0  0  0  0  0  0  0  0  0  0  0
   40.5060   37.4590   28.7510 C   0  0  0  0  0  0  0  0  0  0  0  0
   43.5060   39.4330   27.8150 C   0  0  0  0  0  0  0  0  0  0  0  0
   37.1590   37.8990   29.8100 N   0  0  0  0  0  0  0  0  0  0  0  0
   41.5890   39.6960   27.6920 C   0  0  0  0  0  0  0  0  0  0  0  0
   44.6120   38.4620   28.2310 C   0  0  0  0  0  0  0  0  0  0  0  0
   30.9840   35.7740   30.8860 N   0  0  0  0  0  0  0  0  0  0  0  0
   32.2100   36.0830   30.3790 C   0  0  0  0  0  0  0  0  0  0  0  0
   39.9480   36.2710   28.5020 C   0  0  0  0  0  0  0  0  0  0  0  0
   45.8790   38.6370   27.6780 O   0  0  0  0  0  0  0  0  0  0  0  0
   38.6530   36.4110   29.1150 C   0  0  0  0  0  0  0  0  0  0  0  0
   34.3000   37.3870   29.9000 O   0  0  0  0  0  0  0  0  0  0  0  0
   44.1080   37.1360   28.0110 N   0  0  0  0  0  0  0  0  0  0  0  0
   32.3420   33.8310   29.6170 C   0  0  0  0  0  0  0  0  0  0  0  0
   42.7080   36.8760   27.8270 C   0  0  0  0  0  0  0  0  0  0  0  0
   39.5980   38.4700   29.0390 O   0  0  0  0  0  0  0  0  0  0  0  0
   36.5200   36.6350   29.8450 C   0  0  0  0  0  0  0  0  0  0  0  0
  1 25  1  0
  3 16  1  0
  4  2  2  0
  5 13  1  0
  5  8  1  0
  6  3  1  0
  6  7  1  0
  7 20  2  0
  8 23  1  0
  9 12  2  0
 10 17  1  0
 10  8  1  0
 10 24  1  0
 11 13  1  0
 11 14  1  0
 11  5  1  0
 12 25  1  0
 14 18  1  0
 15  2  1  0
 16 15  2  0
 17 19  1  0
 19  9  1  0
 19  1  2  0
 21 14  1  0
 22  3  2  0
 22  4  1  0
 23 21  1  0
 24  9  1  0
 25  7  1  0
M  END
$$$$

     RDKit          3D

 11 12  0  0  0  0  0  0  0  0999 V2000
   38.1490   37.9420   29.7160 O   0  0  0  0  0  0  0  0  0  0  0  0
   41.1560   39.6850   31.2330 O   0  0  0  0  0  0  0  0  0  0  0  0
   40.9790   39.3270   29.5900 C   0  0  0  0  0  0  0  0  0  0  0  0
   40.5860   37.9300   29.8210 C   0  0  0  0  0  0  0  0  0  0  0  0
   39.6640   39.4000   29.3380 O   0  0  0  0  0  0  0  0  0  0  0  0
   38.5170   35.4660   29.9680 O   0  0  0  0  0  0  0  0  0  0  0  0
   41.6420   36.9750   29.7980 O   0  0  0  0  0  0  0  0  0  0  0  0
   40.9210   35.7780   29.2940 C   0  0  0  0  0  0  0  0  0  0  0  0
   39.5720   36.0430   29.8560 C   0  0  0  0  0  0  0  0  0  0  0  0
   39.3740   37.3510   29.2500 C   0  0  0  0  0  0  0  0  0  0  0  0
   41.2970   34.5050   29.2590 O   0  0  0  0  0  0  0  0  0  0  0  0
  3  4  1  0
  3  2  1  0
  4  5  1  0
  5  3  1  0
  7  4  1  0
  8  7  1  0
  8  9  1  0
  9  6  2  0
 10  1  1  0
 10  4  1  0
 10  9  1  0
 11  8  2  0
M  END
$$$$

     RDKit          3D

 10 10  0  0  0  0  0  0  0  0999 V2000
   40.6620   38.3290   26.1260 C   0  0  0  0  0  0  0  0  0  0  0  0
   42.0400   39.4300   28.1700 C   0  0  0  0  0  0  0  0  0  0  0  0
   42.6690   37.0250   28.8890 C   0  0  0  0  0  0  0  0  0  0  0  0
   41.6780   37.5420   26.6680 C   0  0  0  0  0  0  0  0  0  0  0  0
   42.8150   39.9770   29.0860 O   0  0  0  0  0  0  0  0  0  0  0  0
   42.6790   37.2250   30.1160 O   0  0  0  0  0  0  0  0  0  0  0  0
   40.3640   39.5360   26.8200 C   0  0  0  0  0  0  0  0  0  0  0  0
   41.1230   40.2430   27.5660 C   0  0  0  0  0  0  0  0  0  0  0  0
   42.3060   36.2710   26.1520 C   0  0  0  0  0  0  0  0  0  0  0  0
   42.1480   37.9900   27.9300 C   0  0  0  0  0  0  0  0  0  0  0  0
  1  4  2  0
  1  7  1  0
  2  5  1  0
  3  6  2  0
  4 10  1  0
  7  8  1  0
  8  2  1  0
  9  4  1  0
 10  2  1  0
 10  3  1  0
M  END
$$$$

     RDKit          3D

  8  7  0  0  0  0  0  0  0  0999 V2000
   39.9050   39.5500   27.9700 N   0  0  0  0  0  0  0  0  0  0  0  0
   39.5760   37.1300   27.6180 C   0  0  0  0  0  0  0  0  0  0  0  0
   40.4270   38.4160   27.1980 C   0  0  0  0  0  0  0  0  0  0  0  0
   40.4120   38.7920   25.6920 C   0  0  0  0  0  0  0  0  0  0  0  0
   41.8020   38.2250   27.5860 O   0  0  0  0  0  0  0  0  0  0  0  0
   40.8000   35.2310   28.7680 O   0  0  0  0  0  0  0  0  0  0  0  0
   40.2830   36.4390   28.8170 C   0  0  0  0  0  0  0  0  0  0  0  0
   40.3800   37.1380   29.9380 O   0  0  0  0  0  0  0  0  0  0  0  0
  2  7  1  0
  3  4  1  0
  3  5  1  0
  3  2  1  0
  3  1  1  0
  6  7  2  0
  7  8  1  0
M  END
$$$$

     RDKit          3D

 12 12  0  0  0  0  0  0  0  0999 V2000
   41.0820   35.8460   29.3600 C   0  0  0  0  0  0  0  0  0  0  0  0
   38.6410   35.9200   30.0130 C   0  0  0  0  0  0  0  0  0  0  0  0
   37.6050   36.7690   30.3100 N   0  0  0  0  0  0  0  0  0  0  0  0
   38.5510   34.7890   30.7600 O   0  0  0  0  0  0  0  0  0  0  0  0
   39.8030   36.3870   29.3350 C   0  0  0  0  0  0  0  0  0  0  0  0
   40.7670   38.0370   28.0260 C   0  0  0  0  0  0  0  0  0  0  0  0
   35.4660   37.6470   30.2140 N   0  0  0  0  0  0  0  0  0  0  0  0
   42.1320   36.4840   28.7740 C   0  0  0  0  0  0  0  0  0  0  0  0
   41.9590   37.4650   27.9190 C   0  0  0  0  0  0  0  0  0  0  0  0
   39.1250   33.5920   30.3490 C   0  0  0  0  0  0  0  0  0  0  0  0
   36.8230   37.4950   30.0380 C   0  0  0  0  0  0  0  0  0  0  0  0
   39.6820   37.6370   28.7110 C   0  0  0  0  0  0  0  0  0  0  0  0
  2  3  1  0
  2  4  1  0
  5  1  1  0
  5  2  1  0
  6 12  1  0
  8  1  2  0
  9  6  2  0
  9  8  1  0
 10  4  1  0
 11  7  1  0
 11  3  1  0
 12  5  2  0
M  END
$$$$
