
     RDKit          3D

 11 10  0  0  0  0  0  0  0  0999 V2000
   38.2510   38.1860   28.9890 C   0  0  0  0  0  0  0  0  0  0  0  0
   38.6000   39.5310   29.4970 C   0  0  0  0  0  0  0  0  0  0  0  0
   40.2110   41.7290   29.4140 C   0  0  0  0  0  0  0  0  0  0  0  0
   36.5790   37.1980   29.9200 O   0  0  0  0  0  0  0  0  0  0  0  0
   41.2550   40.7720   28.9170 C   0  0  0  0  0  0  0  0  0  0  0  0
   40.6250   42.5210   30.3050 O   0  0  0  0  0  0  0  0  0  0  0  0
   38.8900   41.5840   29.2450 C   0  0  0  0  0  0  0  0  0  0  0  0
   36.1310   39.1650   29.7410 O   0  0  0  0  0  0  0  0  0  0  0  0
   36.7590   38.1810   29.2230 C   0  0  0  0  0  0  0  0  0  0  0  0
   38.4310   40.5170   28.3780 C   0  0  0  0  0  0  0  0  0  0  0  0
   37.8650   42.5340   29.3780 N   0  0  0  0  0  0  0  0  0  0  0  0
  1  9  1  0
  1  2  1  0
  3  6  2  0
  5  3  1  0
  7 11  1  0
  7  3  1  0
  9  8  1  0
  9  4  1  0
 10  7  1  0
 10  2  1  0
M  END
$$$$

     RDKit          3D

 14 14  0  0  0  0  0  0  0  0999 V2000
   36.4180   41.7180   28.4700 O   0  0  0  0  0  0  0  0  0  0  0  0
   38.8650   40.5650   28.4670 C   0  0  0  0  0  0  0  0  0  0  0  0
   39.6300   43.1110   28.3960 O   0  0  0  0  0  0  0  0  0  0  0  0
   36.1200   40.8810   31.2700 C   0  0  0  0  0  0  0  0  0  0  0  0
   36.9390   40.3380   32.3960 C   0  0  0  0  0  0  0  0  0  0  0  0
   38.9860   41.3750   30.8850 O   0  0  0  0  0  0  0  0  0  0  0  0
   37.6680   43.9090   27.8000 O   0  0  0  0  0  0  0  0  0  0  0  0
   38.6190   42.1450   26.4870 C   0  0  0  0  0  0  0  0  0  0  0  0
   37.7490   43.1980   30.5620 O   0  0  0  0  0  0  0  0  0  0  0  0
   38.0560   42.0490   30.2980 C   0  0  0  0  0  0  0  0  0  0  0  0
   37.8480   41.6410   28.7740 C   0  0  0  0  0  0  0  0  0  0  0  0
   38.4650   42.7290   27.8790 C   0  0  0  0  0  0  0  0  0  0  0  0
   36.8150   42.2710   31.0880 C   0  0  0  0  0  0  0  0  0  0  0  0
   39.6770   40.0850   28.7370 O   0  0  0  0  0  0  0  0  0  0  0  0
  2 14  2  0
  2 11  1  0
  4  5  1  0
  7 12  1  0
  8 12  1  0
  9 13  1  0
 10  9  1  0
 10  6  1  0
 10 13  1  0
 11  1  1  0
 11 10  1  0
 12  3  1  0
 12 11  1  0
 13  4  1  0
M  END
$$$$

     RDKit          3D

 22 25  0  0  0  0  0  0  0  0999 V2000
   37.3840   33.9300   33.0630 C   0  0  0  0  0  0  0  0  0  0  0  0
   37.8380   34.8380   31.9100 C   0  0  0  0  0  0  0  0  0  0  0  0
   37.3270   37.4230   33.3430 C   0  0  0  0  0  0  0  0  0  0  0  0
   37.4050   32.8490   31.0980 O   0  0  0  0  0  0  0  0  0  0  0  0
   37.5860   39.6200   32.1360 C   0  0  0  0  0  0  0  0  0  0  0  0
   36.0610   36.7070   33.2360 O   0  0  0  0  0  0  0  0  0  0  0  0
   38.1810   43.1760   33.0200 C   0  0  0  0  0  0  0  0  0  0  0  0
   38.4920   37.3170   32.3160 C   0  0  0  0  0  0  0  0  0  0  0  0
   39.4610   43.3470   32.4900 C   0  0  0  0  0  0  0  0  0  0  0  0
   39.9010   37.3410   32.9490 C   0  0  0  0  0  0  0  0  0  0  0  0
   37.4670   41.9900   32.7830 C   0  0  0  0  0  0  0  0  0  0  0  0
   37.5000   34.2790   34.2400 O   0  0  0  0  0  0  0  0  0  0  0  0
   38.2430   36.1780   31.4560 N   0  0  0  0  0  0  0  0  0  0  0  0
   37.1730   38.9800   33.4870 C   0  0  0  0  0  0  0  0  0  0  0  0
   38.2020   38.0520   29.9450 C   0  0  0  0  0  0  0  0  0  0  0  0
   37.4010   32.5960   32.5260 C   0  0  0  0  0  0  0  0  0  0  0  0
   38.1520   41.0150   32.1760 C   0  0  0  0  0  0  0  0  0  0  0  0
   39.2570   41.2970   31.2890 N   0  0  0  0  0  0  0  0  0  0  0  0
   37.7550   34.0200   30.7370 N   0  0  0  0  0  0  0  0  0  0  0  0
   38.3370   38.5580   31.3480 C   0  0  0  0  0  0  0  0  0  0  0  0
   39.9530   42.4630   31.5120 C   0  0  0  0  0  0  0  0  0  0  0  0
   38.4110   36.5520   30.0560 C   0  0  0  0  0  0  0  0  0  0  0  0
  1 12  2  0
  2 19  1  0
  2  1  1  0
  3  6  1  0
  3 14  1  0
  4 16  1  0
  5 17  1  0
  5 14  1  0
  8 10  1  0
  8  3  1  0
  9  7  2  0
 11  7  1  0
 13 22  1  0
 13  2  1  0
 13  8  1  0
 15 22  1  0
 16  1  1  0
 17 11  2  0
 18 21  2  0
 18 17  1  0
 19  4  1  0
 20 15  1  0
 20  5  1  0
 20  8  1  0
 21  9  1  0
M  END
$$$$

     RDKit          3D

  6  5  0  0  0  0  0  0  0  0999 V2000
   38.4410   43.0660   27.5550 O   0  0  0  0  0  0  0  0  0  0  0  0
   40.0300   40.6380   28.2660 O   0  0  0  0  0  0  0  0  0  0  0  0
   38.4620   42.1460   28.3670 C   0  0  0  0  0  0  0  0  0  0  0  0
   37.8130   41.5670   29.3570 N   0  0  0  0  0  0  0  0  0  0  0  0
   39.2300   41.3550   27.6380 C   0  0  0  0  0  0  0  0  0  0  0  0
   40.0280   41.2230   27.1780 C   0  0  0  0  0  0  0  0  0  0  0  0
  1  3  2  0
  3  4  1  0
  5  3  1  0
  6  5  1  0
  6  2  1  0
M  END
$$$$

     RDKit          3D

 12 12  0  0  0  0  0  0  0  0999 V2000
   37.9820   39.4790   27.9420 O   0  0  0  0  0  0  0  0  0  0  0  0
   36.2040   44.4620   26.9550 C   0  0  0  0  0  0  0  0  0  0  0  0
   39.0670   44.3270   28.1850 O   0  0  0  0  0  0  0  0  0  0  0  0
   38.7300   40.1090   26.9360 C   0  0  0  0  0  0  0  0  0  0  0  0
   40.5940   42.6450   26.5510 O   0  0  0  0  0  0  0  0  0  0  0  0
   37.2270   42.1760   26.1480 O   0  0  0  0  0  0  0  0  0  0  0  0
   39.4380   42.5680   26.5090 C   0  0  0  0  0  0  0  0  0  0  0  0
   37.5040   42.1240   27.5310 O   0  0  0  0  0  0  0  0  0  0  0  0
   38.3900   41.5030   26.7240 C   0  0  0  0  0  0  0  0  0  0  0  0
   38.6920   43.6590   27.1700 C   0  0  0  0  0  0  0  0  0  0  0  0
   36.9400   45.4600   25.9610 O   0  0  0  0  0  0  0  0  0  0  0  0
   37.3510   43.4390   26.7070 C   0  0  0  0  0  0  0  0  0  0  0  0
  4  1  1  0
  6 12  1  0
  6  8  1  0
  7  5  2  0
  7  9  1  0
  7 10  1  0
  9  4  1  0
  9  8  1  0
 10  3  2  0
 11  2  1  0
 12  2  1  0
 12 10  1  0
M  END
$$$$

     RDKit          3D

 19 19  0  0  0  0  0  0  0  0999 V2000
   35.9740   35.3490   31.7790 C   0  0  0  0  0  0  0  0  0  0  0  0
   38.4350   39.8990   30.9940 C   0  0  0  0  0  0  0  0  0  0  0  0
   35.6790   35.4220   30.5800 O   0  0  0  0  0  0  0  0  0  0  0  0
   39.3120   40.5190   29.9140 C   0  0  0  0  0  0  0  0  0  0  0  0
   37.1280   36.2270   32.2500 C   0  0  0  0  0  0  0  0  0  0  0  0
   37.9580   37.3850   31.7970 C   0  0  0  0  0  0  0  0  0  0  0  0
   38.7410   38.3960   28.6490 C   0  0  0  0  0  0  0  0  0  0  0  0
   40.3640   41.5580   29.4770 C   0  0  0  0  0  0  0  0  0  0  0  0
   38.0420   38.5110   30.9390 C   0  0  0  0  0  0  0  0  0  0  0  0
   37.6560   36.9760   34.3960 O   0  0  0  0  0  0  0  0  0  0  0  0
   40.3140   41.6290   28.0460 O   0  0  0  0  0  0  0  0  0  0  0  0
   39.2940   39.6050   28.7120 C   0  0  0  0  0  0  0  0  0  0  0  0
   35.8020   34.8890   35.6040 C   0  0  0  0  0  0  0  0  0  0  0  0
   35.3060   34.5170   32.4690 O   0  0  0  0  0  0  0  0  0  0  0  0
   34.9650   35.4580   36.7960 C   0  0  0  0  0  0  0  0  0  0  0  0
   36.9270   36.2170   33.7590 C   0  0  0  0  0  0  0  0  0  0  0  0
   35.8440   35.6600   34.3390 N   0  0  0  0  0  0  0  0  0  0  0  0
   35.2760   33.5100   35.2250 C   0  0  0  0  0  0  0  0  0  0  0  0
   37.5840   38.1210   29.6640 C   0  0  0  0  0  0  0  0  0  0  0  0
  1  5  1  0
  1 14  1  0
  3  1  2  0
  4  2  1  0
  5  6  1  0
  5 16  1  0
  7 12  1  0
  7 19  1  0
  8  4  1  0
  9  2  1  0
  9  6  1  0
 11  8  1  0
 12  4  2  0
 13 15  1  0
 16 17  1  0
 16 10  2  0
 17 13  1  0
 18 13  1  0
 19  9  1  0
M  END
$$$$

     RDKit          3D

 16 17  0  0  0  0  0  0  0  0999 V2000
   41.2750   41.9120   29.2970 O   0  0  0  0  0  0  0  0  0  0  0  0
   37.2830   35.2270   33.0660 C   0  0  0  0  0  0  0  0  0  0  0  0
   39.4770   41.0120   31.7770 C   0  0  0  0  0  0  0  0  0  0  0  0
   38.3110   38.7810   30.5290 C   0  0  0  0  0  0  0  0  0  0  0  0
   39.3890   40.8900   30.3570 C   0  0  0  0  0  0  0  0  0  0  0  0
   40.1060   41.7430   29.3560 C   0  0  0  0  0  0  0  0  0  0  0  0
   36.4640   34.0610   33.4170 N   0  0  0  0  0  0  0  0  0  0  0  0
   37.7680   37.3370   33.8200 N   0  0  0  0  0  0  0  0  0  0  0  0
   39.2700   42.3060   28.4200 O   0  0  0  0  0  0  0  0  0  0  0  0
   37.8010   36.2020   31.6780 S   0  0  0  0  0  0  0  0  0  0  0  0
   39.1360   39.8970   32.5510 C   0  0  0  0  0  0  0  0  0  0  0  0
   38.5970   39.9010   29.7730 C   0  0  0  0  0  0  0  0  0  0  0  0
   37.8520   35.8480   34.0310 N   0  0  0  0  0  0  0  0  0  0  0  0
   38.2090   37.5260   32.5660 C   0  0  0  0  0  0  0  0  0  0  0  0
   38.4860   38.8780   31.9270 C   0  0  0  0  0  0  0  0  0  0  0  0
   37.1180   32.9040   33.9270 N   0  0  0  0  0  0  0  0  0  0  0  0
  1  6  1  0
  2  7  1  0
  2 13  2  0
  3 11  1  0
  4 15  1  0
  5  3  2  0
  6  5  1  0
  7 16  1  0
  8 13  1  0
  9  6  2  0
 10 14  1  0
 10  2  1  0
 12  5  1  0
 12  4  2  0
 14 15  1  0
 14  8  1  0
 15 11  2  0
M  END
$$$$

     RDKit          3D

  9  8  0  0  0  0  0  0  0  0999 V2000
   38.6400   40.9200   25.4550 C   0  0  0  0  0  0  0  0  0  0  0  0
   38.6020   41.6060   24.1990 O   0  0  0  0  0  0  0  0  0  0  0  0
   38.0730   42.3400   28.8610 C   0  0  0  0  0  0  0  0  0  0  0  0
   37.1340   42.1800   29.6720 O   0  0  0  0  0  0  0  0  0  0  0  0
   39.0990   42.6270   28.0020 C   0  0  0  0  0  0  0  0  0  0  0  0
   37.6280   42.7860   28.3310 O   0  0  0  0  0  0  0  0  0  0  0  0
   39.4170   40.6420   26.7680 C   0  0  0  0  0  0  0  0  0  0  0  0
   39.4320   39.9290   28.1920 N   0  0  0  0  0  0  0  0  0  0  0  0
   39.7630   42.0950   26.8380 C   0  0  0  0  0  0  0  0  0  0  0  0
  1  7  1  0
  2  1  1  0
  3  4  1  0
  5  3  1  0
  6  3  2  0
  7  9  1  0
  7  8  1  0
  9  5  1  0
M  END
$$$$

     RDKit          3D

  7  6  0  0  0  0  0  0  0  0999 V2000
   38.4660   43.3630   27.8550 C   0  0  0  0  0  0  0  0  0  0  0  0
   38.9260   40.3040   25.6230 C   0  0  0  0  0  0  0  0  0  0  0  0
   38.2470   44.3450   26.9480 O   0  0  0  0  0  0  0  0  0  0  0  0
   38.2420   43.8870   28.8890 O   0  0  0  0  0  0  0  0  0  0  0  0
   38.4640   42.1490   27.3910 C   0  0  0  0  0  0  0  0  0  0  0  0
   39.3020   40.4540   24.3920 N   0  0  0  0  0  0  0  0  0  0  0  0
   39.1340   41.0400   26.9080 C   0  0  0  0  0  0  0  0  0  0  0  0
  1  4  1  0
  2  7  1  0
  3  1  2  0
  5  1  1  0
  6  2  2  0
  7  5  1  0
M  END
$$$$

     RDKit          3D

 20 21  0  0  0  0  0  0  0  0999 V2000
   35.4600   34.4200   33.3160 C   0  0  0  0  0  0  0  0  0  0  0  0
   37.6570   41.7220   30.9860 C   0  0  0  0  0  0  0  0  0  0  0  0
   38.7870   40.7200   31.2660 C   0  0  0  0  0  0  0  0  0  0  0  0
   37.3210   37.5770   32.6660 N   0  0  0  0  0  0  0  0  0  0  0  0
   36.0120   36.8250   33.0220 C   0  0  0  0  0  0  0  0  0  0  0  0
   38.3890   39.5820   32.2060 C   0  0  0  0  0  0  0  0  0  0  0  0
   38.4550   37.2110   34.9430 O   0  0  0  0  0  0  0  0  0  0  0  0
   41.7570   42.9020   29.2140 O   0  0  0  0  0  0  0  0  0  0  0  0
   40.9550   40.4410   28.0650 N   0  0  0  0  0  0  0  0  0  0  0  0
   39.1750   39.0480   33.3510 C   0  0  0  0  0  0  0  0  0  0  0  0
   36.7440   38.7840   30.7220 O   0  0  0  0  0  0  0  0  0  0  0  0
   35.6100   36.1160   31.7070 C   0  0  0  0  0  0  0  0  0  0  0  0
   40.6950   42.1960   29.8180 C   0  0  0  0  0  0  0  0  0  0  0  0
   38.2810   37.8290   33.7410 C   0  0  0  0  0  0  0  0  0  0  0  0
   41.1650   41.9050   31.1170 O   0  0  0  0  0  0  0  0  0  0  0  0
   39.4650   40.0150   30.1050 C   0  0  0  0  0  0  0  0  0  0  0  0
   35.4990   35.7690   34.0920 C   0  0  0  0  0  0  0  0  0  0  0  0
   40.0610   40.9990   29.0990 C   0  0  0  0  0  0  0  0  0  0  0  0
   37.4320   38.7060   31.7160 C   0  0  0  0  0  0  0  0  0  0  0  0
   36.0760   34.7060   31.9440 C   0  0  0  0  0  0  0  0  0  0  0  0
  1 17  1  0
  3  2  1  0
  4  5  1  0
  4 14  1  0
  5 17  1  0
  6  3  1  0
  6 10  1  0
  8 13  1  0
 10 14  1  0
 11 19  2  0
 12 20  1  0
 12  5  1  0
 13 15  1  0
 14  7  2  0
 16  3  1  0
 18  9  1  0
 18 13  1  0
 18 16  1  0
 19  6  1  0
 19  4  1  0
 20  1  1  0
M  END
$$$$

     RDKit          3D

 20 21  0  0  0  0  0  0  0  0999 V2000
   37.9790   39.1120   33.8970 O   0  0  0  0  0  0  0  0  0  0  0  0
   38.5220   38.5830   32.6170 S   0  0  0  0  0  0  0  0  0  0  0  0
   36.5100   37.1230   32.2320 C   0  0  0  0  0  0  0  0  0  0  0  0
   33.6440   33.1840   36.6350 C   0  0  0  0  0  0  0  0  0  0  0  0
   39.2220   39.9220   31.8920 N   0  0  0  0  0  0  0  0  0  0  0  0
   37.2530   42.1040   29.8710 N   0  0  0  0  0  0  0  0  0  0  0  0
   38.9860   36.8400   32.9460 S   0  0  0  0  0  0  0  0  0  0  0  0
   38.4890   40.7880   31.0640 C   0  0  0  0  0  0  0  0  0  0  0  0
   37.2510   41.1680   30.9090 C   0  0  0  0  0  0  0  0  0  0  0  0
   34.2410   33.9480   35.3260 S   0  0  0  0  0  0  0  0  0  0  0  0
   37.2880   35.0000   33.4180 C   0  0  0  0  0  0  0  0  0  0  0  0
   33.5150   34.4570   34.2760 O   0  0  0  0  0  0  0  0  0  0  0  0
   38.4620   42.2810   29.4940 C   0  0  0  0  0  0  0  0  0  0  0  0
   38.3420   34.3380   33.7230 O   0  0  0  0  0  0  0  0  0  0  0  0
   35.3120   36.7340   31.7580 O   0  0  0  0  0  0  0  0  0  0  0  0
   35.8900   33.9590   35.1040 C   0  0  0  0  0  0  0  0  0  0  0  0
   36.1240   34.7130   33.8800 N   0  0  0  0  0  0  0  0  0  0  0  0
   37.5820   36.0260   32.3580 C   0  0  0  0  0  0  0  0  0  0  0  0
   39.3500   41.5470   30.2830 N   0  0  0  0  0  0  0  0  0  0  0  0
   37.2320   38.2280   31.4920 C   0  0  0  0  0  0  0  0  0  0  0  0
  2  7  1  0
  2  1  1  0
  3 15  1  0
  3 18  1  0
  5  2  1  0
  6  9  1  0
  8  5  1  0
  9  8  1  0
 10  4  1  0
 11 14  2  0
 11 17  1  0
 12 10  2  0
 13  6  2  0
 13 19  1  0
 16 10  1  0
 17 16  1  0
 18  7  1  0
 18 11  1  0
 19  8  2  0
 20  3  1  0
 20  2  1  0
M  END
$$$$

     RDKit          3D

 12 12  0  0  0  0  0  0  0  0999 V2000
   38.8990   40.1540   31.9320 C   0  0  0  0  0  0  0  0  0  0  0  0
   40.3240   39.4420   28.5860 C   0  0  0  0  0  0  0  0  0  0  0  0
   38.4560   39.7110   33.0430 C   0  0  0  0  0  0  0  0  0  0  0  0
   38.7210   41.9820   31.7210 Cl  0  0  0  0  0  0  0  0  0  0  0  0
   38.4330   40.8580   34.0860 C   0  0  0  0  0  0  0  0  0  0  0  0
   39.2120   38.3860   30.4260 C   0  0  0  0  0  0  0  0  0  0  0  0
   38.0690   41.8110   34.6250 N   0  0  0  0  0  0  0  0  0  0  0  0
   39.5660   38.0480   29.1620 O   0  0  0  0  0  0  0  0  0  0  0  0
   38.2160   38.4410   33.4030 C   0  0  0  0  0  0  0  0  0  0  0  0
   38.1750   37.5040   32.4250 C   0  0  0  0  0  0  0  0  0  0  0  0
   39.2890   39.6680   30.8000 N   0  0  0  0  0  0  0  0  0  0  0  0
   38.6590   37.4750   31.2010 N   0  0  0  0  0  0  0  0  0  0  0  0
  1  4  1  0
  1  3  1  0
  2  8  1  0
  3  9  2  0
  3  5  1  0
  5  7  3  0
  6 11  2  0
  6 12  2  0
  8  6  1  0
 10  9  1  0
 11  1  1  0
 12 10  1  0
M  END
$$$$

     RDKit          3D

 18 18  0  0  0  0  0  0  0  0999 V2000
   38.7680   40.3670   30.0340 C   0  0  0  0  0  0  0  0  0  0  0  0
   36.5760   37.0280   32.3330 C   0  0  0  0  0  0  0  0  0  0  0  0
   38.5370   38.4420   32.8120 C   0  0  0  0  0  0  0  0  0  0  0  0
   40.9480   41.4930   31.1400 S   0  0  0  0  0  0  0  0  0  0  0  0
   39.2250   39.6010   32.3640 N   0  0  0  0  0  0  0  0  0  0  0  0
   37.6690   37.9120   31.9440 N   0  0  0  0  0  0  0  0  0  0  0  0
   38.1370   40.9490   27.4630 C   0  0  0  0  0  0  0  0  0  0  0  0
   39.6700   40.2820   31.2430 C   0  0  0  0  0  0  0  0  0  0  0  0
   38.7130   38.0230   33.9270 O   0  0  0  0  0  0  0  0  0  0  0  0
   38.9210   39.3860   29.0760 C   0  0  0  0  0  0  0  0  0  0  0  0
   38.6250   39.7200   27.7870 C   0  0  0  0  0  0  0  0  0  0  0  0
   37.7830   41.8300   28.5080 C   0  0  0  0  0  0  0  0  0  0  0  0
   38.3800   41.6240   29.7300 C   0  0  0  0  0  0  0  0  0  0  0  0
   36.9750   35.9620   33.3440 C   0  0  0  0  0  0  0  0  0  0  0  0
   39.8400   41.1010   34.3560 C   0  0  0  0  0  0  0  0  0  0  0  0
   40.8250   42.4330   32.4580 N   0  0  0  0  0  0  0  0  0  0  0  0
   38.1670   35.1670   32.6770 C   0  0  0  0  0  0  0  0  0  0  0  0
   40.7320   41.9050   33.7140 C   0  0  0  0  0  0  0  0  0  0  0  0
  1  8  1  0
  2 14  1  0
  3  9  2  0
  4 16  1  0
  5  3  1  0
  6  2  1  0
  6  3  1  0
  7 11  2  0
  7 12  1  0
  8  4  1  0
  8  5  1  0
 10  1  2  0
 11 10  1  0
 12 13  2  0
 13  1  1  0
 16 18  1  0
 17 14  1  0
 18 15  2  0
M  END
$$$$

     RDKit          3D

 12 12  0  0  0  0  0  0  0  0999 V2000
   39.6340   39.5370   33.6030 C   0  0  0  0  0  0  0  0  0  0  0  0
   38.9540   38.7220   29.7690 C   0  0  0  0  0  0  0  0  0  0  0  0
   38.7940   37.7210   29.3050 O   0  0  0  0  0  0  0  0  0  0  0  0
   39.0250   38.7080   31.4240 C   0  0  0  0  0  0  0  0  0  0  0  0
   38.3370   37.7300   32.0860 C   0  0  0  0  0  0  0  0  0  0  0  0
   38.2760   37.6350   33.4760 C   0  0  0  0  0  0  0  0  0  0  0  0
   38.1710   39.8490   29.5160 O   0  0  0  0  0  0  0  0  0  0  0  0
   39.6110   39.6730   32.2140 C   0  0  0  0  0  0  0  0  0  0  0  0
   38.8330   38.6240   34.2670 C   0  0  0  0  0  0  0  0  0  0  0  0
   40.1350   38.8990   28.5620 C   0  0  0  0  0  0  0  0  0  0  0  0
   40.7800   40.3670   34.7140 S   0  0  0  0  0  0  0  0  0  0  0  0
   41.0840   41.9290   35.2880 C   0  0  0  0  0  0  0  0  0  0  0  0
  1  9  1  0
  1 11  1  0
  2  4  1  0
  3  2  1  0
  4  5  2  0
  4  8  1  0
  5  6  1  0
  6  9  2  0
  7  2  1  0
  8  1  2  0
 10  2  1  0
 11 12  1  0
M  END
$$$$

     RDKit          3D

 18 18  0  0  0  0  0  0  0  0999 V2000
   38.6110   40.2230   30.6370 C   0  0  0  0  0  0  0  0  0  0  0  0
   36.1750   32.7840   34.5210 C   0  0  0  0  0  0  0  0  0  0  0  0
   34.9900   29.6850   33.8270 C   0  0  0  0  0  0  0  0  0  0  0  0
   38.5470   39.3430   31.8280 C   0  0  0  0  0  0  0  0  0  0  0  0
   38.7300   39.8380   29.3620 C   0  0  0  0  0  0  0  0  0  0  0  0
   39.4690   37.0270   33.5590 N   0  0  0  0  0  0  0  0  0  0  0  0
   38.7730   42.0960   29.1360 N   0  0  0  0  0  0  0  0  0  0  0  0
   39.3460   40.9000   26.9620 C   0  0  0  0  0  0  0  0  0  0  0  0
   37.4790   35.7870   33.1790 C   0  0  0  0  0  0  0  0  0  0  0  0
   38.5800   41.9080   30.7200 S   0  0  0  0  0  0  0  0  0  0  0  0
   38.6280   43.4170   28.5810 C   0  0  0  0  0  0  0  0  0  0  0  0
   37.0580   34.5860   33.1600 C   0  0  0  0  0  0  0  0  0  0  0  0
   34.3390   31.4540   35.4070 C   0  0  0  0  0  0  0  0  0  0  0  0
   36.7240   33.2340   33.3060 C   0  0  0  0  0  0  0  0  0  0  0  0
   37.9030   38.2940   32.2010 C   0  0  0  0  0  0  0  0  0  0  0  0
   38.3760   36.9150   32.6300 C   0  0  0  0  0  0  0  0  0  0  0  0
   39.0300   40.9700   28.5180 C   0  0  0  0  0  0  0  0  0  0  0  0
   35.4230   31.2060   34.4800 C   0  0  0  0  0  0  0  0  0  0  0  0
  1 10  1  0
  1  4  1  0
  3 18  1  0
  4 15  1  0
  5  1  1  0
  7 10  1  0
 11  7  1  0
 12  9  2  0
 12 14  2  0
 14  2  1  0
 15 16  1  0
 16  9  1  0
 16  6  1  0
 17  8  1  0
 17  7  1  0
 17  5  1  0
 18  2  1  0
 18 13  1  0
M  END
$$$$

     RDKit          3D

  8  7  0  0  0  0  0  0  0  0999 V2000
   39.2660   40.8440   27.5480 C   0  0  0  0  0  0  0  0  0  0  0  0
   38.5010   39.9620   26.9490 O   0  0  0  0  0  0  0  0  0  0  0  0
   39.0890   42.0720   27.9520 C   0  0  0  0  0  0  0  0  0  0  0  0
   37.9070   42.9630   27.6650 C   0  0  0  0  0  0  0  0  0  0  0  0
   39.3050   44.7610   27.6950 C   0  0  0  0  0  0  0  0  0  0  0  0
   38.1370   44.1290   28.5200 N   0  0  0  0  0  0  0  0  0  0  0  0
   36.7220   42.0930   27.7720 N   0  0  0  0  0  0  0  0  0  0  0  0
   40.0890   42.6340   28.6480 N   0  0  0  0  0  0  0  0  0  0  0  0
  1  3  2  3
  2  1  1  0
  3  8  1  0
  4  7  1  0
  4  3  1  0
  4  6  1  0
  5  6  1  0
M  END
$$$$

     RDKit          3D

  9  8  0  0  0  0  0  0  0  0999 V2000
   41.4940   42.0940   26.6760 C   0  0  0  0  0  0  0  0  0  0  0  0
   37.1050   41.8630   27.6780 C   0  0  0  0  0  0  0  0  0  0  0  0
   39.5780   41.3150   28.0160 C   0  0  0  0  0  0  0  0  0  0  0  0
   42.6230   43.2260   28.9830 C   0  0  0  0  0  0  0  0  0  0  0  0
   40.5320   42.3870   27.7770 C   0  0  0  0  0  0  0  0  0  0  0  0
   41.3900   42.8720   28.5730 N   0  0  0  0  0  0  0  0  0  0  0  0
   36.9770   42.3850   28.7700 O   0  0  0  0  0  0  0  0  0  0  0  0
   38.3650   41.3130   27.2380 O   0  0  0  0  0  0  0  0  0  0  0  0
   36.0890   41.6650   26.9050 O   0  0  0  0  0  0  0  0  0  0  0  0
  2  7  1  0
  5  1  1  0
  5  3  1  0
  5  6  1  0
  6  4  3  0
  8  2  1  0
  8  3  1  0
  9  2  2  0
M  END
$$$$

     RDKit          3D

 13 12  0  0  0  0  0  0  0  0999 V2000
   38.7800   39.9080   32.6090 C   0  0  0  0  0  0  0  0  0  0  0  0
   38.9010   43.0970   31.6760 N   0  0  0  0  0  0  0  0  0  0  0  0
   38.4690   38.9970   34.8000 O   0  0  0  0  0  0  0  0  0  0  0  0
   38.9640   36.7350   29.3240 O   0  0  0  0  0  0  0  0  0  0  0  0
   40.2860   39.7550   34.5200 O   0  0  0  0  0  0  0  0  0  0  0  0
   38.9900   37.9990   29.3340 C   0  0  0  0  0  0  0  0  0  0  0  0
   39.2440   39.4740   33.9800 C   0  0  0  0  0  0  0  0  0  0  0  0
   39.4760   40.8610   31.9820 N   0  0  0  0  0  0  0  0  0  0  0  0
   38.3030   38.5960   30.4720 C   0  0  0  0  0  0  0  0  0  0  0  0
   38.9690   42.0570   31.9900 C   0  0  0  0  0  0  0  0  0  0  0  0
   39.3340   38.6140   28.2280 O   0  0  0  0  0  0  0  0  0  0  0  0
   37.4900   39.4780   30.2400 O   0  0  0  0  0  0  0  0  0  0  0  0
   38.4440   38.5450   31.9900 C   0  0  0  0  0  0  0  0  0  0  0  0
  1 13  1  0
  1  7  1  0
  2 10  2  0
  4  6  1  0
  6  9  1  0
  7  5  2  0
  7  3  1  0
  8 10  1  0
  8  1  1  0
  9 13  1  0
 11  6  2  0
 12  9  2  0
M  END
$$$$

     RDKit          3D

 15 15  0  0  0  0  0  0  0  0999 V2000
   39.2210   38.2180   29.9460 C   0  0  0  0  0  0  0  0  0  0  0  0
   37.7570   38.8010   31.9640 C   0  0  0  0  0  0  0  0  0  0  0  0
   38.8080   42.4860   28.7400 C   0  0  0  0  0  0  0  0  0  0  0  0
   37.4420   40.9600   33.5410 O   0  0  0  0  0  0  0  0  0  0  0  0
   38.8280   38.9820   33.0110 C   0  0  0  0  0  0  0  0  0  0  0  0
   39.0410   40.3520   27.4300 C   0  0  0  0  0  0  0  0  0  0  0  0
   38.0380   43.0300   27.5430 C   0  0  0  0  0  0  0  0  0  0  0  0
   38.6360   40.2420   33.8400 C   0  0  0  0  0  0  0  0  0  0  0  0
   38.6950   42.6460   26.3190 C   0  0  0  0  0  0  0  0  0  0  0  0
   38.2320   40.5780   30.2500 C   0  0  0  0  0  0  0  0  0  0  0  0
   39.4910   41.3310   26.3920 C   0  0  0  0  0  0  0  0  0  0  0  0
   38.9250   40.0190   35.3010 C   0  0  0  0  0  0  0  0  0  0  0  0
   38.4740   40.9840   28.7650 C   0  0  0  0  0  0  0  0  0  0  0  0
   38.2110   39.1360   30.5500 C   0  0  0  0  0  0  0  0  0  0  0  0
   38.8430   37.8590   33.8970 O   0  0  0  0  0  0  0  0  0  0  0  0
  2  5  1  0
  3 13  1  0
  4  8  1  0
  5  8  1  0
  5 15  1  0
  6 13  1  0
  7  3  1  0
  8 12  1  0
  9 11  1  0
  9  7  1  0
 10 14  1  0
 11  6  1  0
 13 10  1  0
 14  1  1  0
 14  2  1  0
M  END
$$$$

     RDKit          3D

 11 13  0  0  0  0  0  0  0  0999 V2000
   37.8510   40.8050   27.8610 C   0  0  0  0  0  0  0  0  0  0  0  0
   38.4900   42.9570   28.6850 C   0  0  0  0  0  0  0  0  0  0  0  0
   39.3110   39.1070   28.8820 C   0  0  0  0  0  0  0  0  0  0  0  0
   40.5830   41.2600   28.8200 C   0  0  0  0  0  0  0  0  0  0  0  0
   37.9970   38.5000   28.5180 C   0  0  0  0  0  0  0  0  0  0  0  0
   37.0860   39.6820   28.6360 C   0  0  0  0  0  0  0  0  0  0  0  0
   39.3570   41.8640   29.3910 C   0  0  0  0  0  0  0  0  0  0  0  0
   41.3810   42.4810   28.1180 C   0  0  0  0  0  0  0  0  0  0  0  0
   37.2360   42.2500   28.4550 C   0  0  0  0  0  0  0  0  0  0  0  0
   39.2030   40.6020   28.4970 C   0  0  0  0  0  0  0  0  0  0  0  0
   41.7720   43.3900   29.2810 O   0  0  0  0  0  0  0  0  0  0  0  0
  1  9  1  0
  1 10  1  0
  1  6  1  0
  4  8  1  0
  4  7  1  0
  5  6  1  0
  5  3  1  0
  7  2  1  0
  8 11  1  0
  9  2  1  0
 10  4  1  0
 10  3  1  0
 10  7  1  0
M  END
$$$$
