
     RDKit          3D

  7  6  0  0  0  0  0  0  0  0999 V2000
   39.1790   29.7430   30.1740 C   0  0  0  0  0  0  0  0  0  0  0  0
   42.0860   32.4360   28.1060 N   0  0  0  0  0  0  0  0  0  0  0  0
   39.1960   30.7640   29.0290 C   0  0  0  0  0  0  0  0  0  0  0  0
   39.9480   32.0270   29.4420 C   0  0  0  0  0  0  0  0  0  0  0  0
   38.1330   29.8590   31.0240 N   0  0  0  0  0  0  0  0  0  0  0  0
   40.6550   32.6810   28.2630 C   0  0  0  0  0  0  0  0  0  0  0  0
   37.9520   29.2030   32.2990 C   0  0  0  0  0  0  0  0  0  0  0  0
  1  5  1  0
  2  6  1  0
  3  4  1  0
  3  1  1  0
  5  7  1  0
  6  4  1  0
M  END
$$$$

     RDKit          3D

  7  6  0  0  0  0  0  0  0  0999 V2000
   41.7180   36.3870   27.0320 O   0  0  0  0  0  0  0  0  0  0  0  0
   41.7740   34.4450   25.6970 C   0  0  0  0  0  0  0  0  0  0  0  0
   42.3280   32.6830   24.0690 C   0  0  0  0  0  0  0  0  0  0  0  0
   40.3420   34.0260   27.6220 C   0  0  0  0  0  0  0  0  0  0  0  0
   42.4720   34.9930   24.7060 N   0  0  0  0  0  0  0  0  0  0  0  0
   40.8810   35.2420   26.5170 C   0  0  0  0  0  0  0  0  0  0  0  0
   41.6460   32.9810   25.3990 C   0  0  0  0  0  0  0  0  0  0  0  0
  2  6  1  0
  3  7  1  0
  5  2  2  0
  6  1  1  0
  6  4  1  0
  7  2  1  0
M  END
$$$$

     RDKit          3D

 13 13  0  0  0  0  0  0  0  0999 V2000
   36.2100   34.5630   29.8450 O   0  0  0  0  0  0  0  0  0  0  0  0
   37.4090   32.2230   30.4900 F   0  0  0  0  0  0  0  0  0  0  0  0
   41.2300   33.7210   27.8470 O   0  0  0  0  0  0  0  0  0  0  0  0
   40.0430   31.6180   29.0950 O   0  0  0  0  0  0  0  0  0  0  0  0
   39.8450   35.1650   29.2030 C   0  0  0  0  0  0  0  0  0  0  0  0
   38.4590   35.4230   29.3370 O   0  0  0  0  0  0  0  0  0  0  0  0
   39.4510   32.7520   29.0900 C   0  0  0  0  0  0  0  0  0  0  0  0
   37.5310   34.3200   29.3940 C   0  0  0  0  0  0  0  0  0  0  0  0
   39.6010   30.1500   29.9380 S   0  0  0  0  0  0  0  0  0  0  0  0
   40.5520   36.1240   28.5030 O   0  0  0  0  0  0  0  0  0  0  0  0
   40.1800   33.9000   28.6060 C   0  0  0  0  0  0  0  0  0  0  0  0
   38.1780   32.9880   29.7350 C   0  0  0  0  0  0  0  0  0  0  0  0
   35.4210   35.5190   29.3540 C   0  0  0  0  0  0  0  0  0  0  0  0
  4  9  1  0
  5 10  1  0
  5  6  1  0
  6  8  1  0
  7  4  1  0
  7 12  1  0
  8 12  1  0
  8  1  1  0
 11  3  1  0
 11  7  1  0
 11  5  1  0
 12  2  1  0
 13  1  1  0
M  END
$$$$

     RDKit          3D

 14 16  0  0  0  0  0  0  0  0999 V2000
   39.7480   33.2370   28.7940 C   0  0  0  0  0  0  0  0  0  0  0  0
   34.1300   35.6840   28.8090 C   0  0  0  0  0  0  0  0  0  0  0  0
   34.1910   33.4960   29.7410 C   0  0  0  0  0  0  0  0  0  0  0  0
   40.5060   36.3900   28.5030 O   0  0  0  0  0  0  0  0  0  0  0  0
   35.5030   35.6340   28.5220 C   0  0  0  0  0  0  0  0  0  0  0  0
   38.3210   35.5340   28.2040 O   0  0  0  0  0  0  0  0  0  0  0  0
   37.6670   34.6690   29.1170 C   0  0  0  0  0  0  0  0  0  0  0  0
   41.1760   33.9780   28.5100 C   0  0  0  0  0  0  0  0  0  0  0  0
   35.5640   33.5090   29.5950 C   0  0  0  0  0  0  0  0  0  0  0  0
   40.4670   35.1910   28.0980 C   0  0  0  0  0  0  0  0  0  0  0  0
   38.8470   34.5080   28.5720 C   0  0  0  0  0  0  0  0  0  0  0  0
   36.2460   34.6120   29.0210 C   0  0  0  0  0  0  0  0  0  0  0  0
   33.4910   34.6610   29.4710 C   0  0  0  0  0  0  0  0  0  0  0  0
   41.7430   36.4990   27.9580 N   0  0  0  0  0  0  0  0  0  0  0  0
  2 13  1  0
  5  2  2  0
  5 12  1  0
  6 11  1  0
  6  7  1  0
  7 12  1  0
  8  1  1  0
  9  3  1  0
 10  4  1  0
 10  8  1  0
 10 11  1  0
 11  1  1  0
 11  7  1  0
 12  9  2  0
 13  3  2  0
 14  4  1  0
M  END
$$$$

     RDKit          3D

 21 22  0  0  0  0  0  0  0  0999 V2000
   37.6160   32.3710   31.1280 C   0  0  0  0  0  0  0  0  0  0  0  0
   33.6740   35.7020   28.3010 C   0  0  0  0  0  0  0  0  0  0  0  0
   40.9300   33.8110   28.9930 O   0  0  0  0  0  0  0  0  0  0  0  0
   41.0670   34.7550   28.2010 C   0  0  0  0  0  0  0  0  0  0  0  0
   35.0760   31.4540   31.2790 Cl  0  0  0  0  0  0  0  0  0  0  0  0
   40.0340   35.7640   28.2380 N   0  0  0  0  0  0  0  0  0  0  0  0
   37.9720   34.4620   29.9630 C   0  0  0  0  0  0  0  0  0  0  0  0
   34.2090   34.8360   28.8850 C   0  0  0  0  0  0  0  0  0  0  0  0
   42.0710   36.0100   26.3210 C   0  0  0  0  0  0  0  0  0  0  0  0
   43.1550   33.7570   25.2630 O   0  0  0  0  0  0  0  0  0  0  0  0
   42.5480   33.5830   26.3810 C   0  0  0  0  0  0  0  0  0  0  0  0
   36.2290   32.4890   30.8320 C   0  0  0  0  0  0  0  0  0  0  0  0
   40.4520   37.0040   27.8830 C   0  0  0  0  0  0  0  0  0  0  0  0
   35.8270   33.4390   30.1040 C   0  0  0  0  0  0  0  0  0  0  0  0
   38.8060   35.5760   29.1640 C   0  0  0  0  0  0  0  0  0  0  0  0
   42.2460   32.4200   26.7130 O   0  0  0  0  0  0  0  0  0  0  0  0
   36.6370   34.5230   29.6740 C   0  0  0  0  0  0  0  0  0  0  0  0
   34.6100   33.5830   29.4600 O   0  0  0  0  0  0  0  0  0  0  0  0
   41.9690   34.7910   27.0570 C   0  0  0  0  0  0  0  0  0  0  0  0
   38.4580   33.3890   30.7240 C   0  0  0  0  0  0  0  0  0  0  0  0
   41.3900   37.1710   26.7870 C   0  0  0  0  0  0  0  0  0  0  0  0
  2  8  3  0
  4  6  1  0
  4  3  2  0
  6 15  1  0
  7 20  1  0
  8 18  1  0
  9 21  1  0
  9 19  2  0
 10 11  2  0
 11 16  1  0
 11 19  1  0
 12  1  1  0
 12  5  1  0
 13  6  1  0
 14 12  2  0
 15  7  1  0
 17  7  2  0
 17 14  1  0
 18 14  1  0
 19  4  1  0
 20  1  2  0
 21 13  2  0
M  END
$$$$

     RDKit          3D

 16 17  0  0  0  0  0  0  0  0999 V2000
   41.6270   33.7690   26.3660 C   0  0  0  0  0  0  0  0  0  0  0  0
   38.3260   34.8890   29.4460 C   0  0  0  0  0  0  0  0  0  0  0  0
   41.9890   34.3460   24.9920 C   0  0  0  0  0  0  0  0  0  0  0  0
   39.2560   35.2810   27.4980 C   0  0  0  0  0  0  0  0  0  0  0  0
   38.4080   35.8620   28.5490 C   0  0  0  0  0  0  0  0  0  0  0  0
   35.8670   34.9250   30.5640 C   0  0  0  0  0  0  0  0  0  0  0  0
   37.6750   34.5450   30.5700 O   0  0  0  0  0  0  0  0  0  0  0  0
   36.6980   34.0090   30.6680 C   0  0  0  0  0  0  0  0  0  0  0  0
   35.7150   35.6400   29.7230 O   0  0  0  0  0  0  0  0  0  0  0  0
   35.8100   34.2630   31.5810 O   0  0  0  0  0  0  0  0  0  0  0  0
   42.5010   34.6570   27.1320 N   0  0  0  0  0  0  0  0  0  0  0  0
   40.4900   33.1670   27.2110 C   0  0  0  0  0  0  0  0  0  0  0  0
   41.3490   35.5740   24.8230 O   0  0  0  0  0  0  0  0  0  0  0  0
   41.9100   33.3070   23.9000 C   0  0  0  0  0  0  0  0  0  0  0  0
   39.3650   33.8700   29.2930 C   0  0  0  0  0  0  0  0  0  0  0  0
   39.9160   34.2780   28.0550 C   0  0  0  0  0  0  0  0  0  0  0  0
  1 11  1  0
  1 12  1  0
  2  7  1  0
  3 14  1  0
  3  1  1  0
  4 16  1  0
  4  5  1  0
  5  2  1  0
  6  8  1  0
  6 10  1  0
  8  7  1  0
  8 10  1  0
  9  6  2  0
 13  3  1  0
 15  2  1  0
 16 12  1  0
 16 15  1  0
M  END
$$$$

     RDKit          3D

 11 10  0  0  0  0  0  0  0  0999 V2000
   39.7120   35.2180   28.5550 N   0  0  0  0  0  0  0  0  0  0  0  0
   39.5880   32.9170   28.2610 C   0  0  0  0  0  0  0  0  0  0  0  0
   35.0120   35.2480   28.9720 C   0  0  0  0  0  0  0  0  0  0  0  0
   39.5220   36.4390   28.1680 O   0  0  0  0  0  0  0  0  0  0  0  0
   37.4800   34.8970   29.1350 C   0  0  0  0  0  0  0  0  0  0  0  0
   36.3070   36.6990   27.5470 O   0  0  0  0  0  0  0  0  0  0  0  0
   40.8940   34.9410   28.7860 O   0  0  0  0  0  0  0  0  0  0  0  0
   34.2570   36.2360   29.0340 O   0  0  0  0  0  0  0  0  0  0  0  0
   34.6480   34.1390   29.4370 O   0  0  0  0  0  0  0  0  0  0  0  0
   38.7120   34.1730   28.3380 C   0  0  0  0  0  0  0  0  0  0  0  0
   36.3290   35.4470   28.2800 C   0  0  0  0  0  0  0  0  0  0  0  0
  1  7  2  0
  3  8  2  0
  3  9  1  0
  4  1  2  0
 10  2  1  0
 10  1  1  0
 10  5  1  0
 11  6  1  0
 11  3  1  0
 11  5  1  0
M  END
$$$$

     RDKit          3D

  8  7  0  0  0  0  0  0  0  0999 V2000
   42.6040   34.1230   26.6010 O   0  0  0  0  0  0  0  0  0  0  0  0
   41.3770   36.9310   24.5970 C   0  0  0  0  0  0  0  0  0  0  0  0
   41.4060   35.4480   24.7890 C   0  0  0  0  0  0  0  0  0  0  0  0
   40.5280   33.4000   25.6420 C   0  0  0  0  0  0  0  0  0  0  0  0
   41.5710   37.6880   25.8160 O   0  0  0  0  0  0  0  0  0  0  0  0
   42.5240   37.2830   23.8010 O   0  0  0  0  0  0  0  0  0  0  0  0
   41.1480   35.1890   27.3570 C   0  0  0  0  0  0  0  0  0  0  0  0
   41.4330   34.5550   26.0820 C   0  0  0  0  0  0  0  0  0  0  0  0
  2  3  1  0
  2  5  1  0
  3  8  1  0
  4  8  1  0
  6  2  1  0
  8  1  1  0
  8  7  1  0
M  END
$$$$

     RDKit          3D

 16 17  0  0  0  0  0  0  0  0999 V2000
   38.3850   31.5620   32.8020 C   0  0  0  0  0  0  0  0  0  0  0  0
   36.6070   34.1910   30.6140 C   0  0  0  0  0  0  0  0  0  0  0  0
   37.9260   34.0050   30.2840 C   0  0  0  0  0  0  0  0  0  0  0  0
   37.6320   32.3080   32.8820 C   0  0  0  0  0  0  0  0  0  0  0  0
   36.5420   32.3480   32.0810 N   0  0  0  0  0  0  0  0  0  0  0  0
   35.7180   34.8740   29.7460 C   0  0  0  0  0  0  0  0  0  0  0  0
   40.3160   35.6340   27.8730 N   0  0  0  0  0  0  0  0  0  0  0  0
   39.8090   34.6310   28.5840 C   0  0  0  0  0  0  0  0  0  0  0  0
   34.3070   34.8190   29.8920 N   0  0  0  0  0  0  0  0  0  0  0  0
   37.6100   35.6510   28.5560 C   0  0  0  0  0  0  0  0  0  0  0  0
   38.4430   34.7260   29.1920 C   0  0  0  0  0  0  0  0  0  0  0  0
   35.9880   33.6690   31.8970 C   0  0  0  0  0  0  0  0  0  0  0  0
   40.5320   33.5340   28.4840 N   0  0  0  0  0  0  0  0  0  0  0  0
   41.4100   33.8150   27.4810 N   0  0  0  0  0  0  0  0  0  0  0  0
   36.2480   35.6230   28.7020 C   0  0  0  0  0  0  0  0  0  0  0  0
   41.2640   35.0970   27.1630 N   0  0  0  0  0  0  0  0  0  0  0  0
  1  4  2  0
  2 12  1  0
  3  2  1  0
  5  4  1  0
  6  9  1  0
  6  2  2  0
  7  8  2  0
  8 11  1  0
 10 15  2  0
 10 11  1  0
 11  3  2  0
 12  5  1  0
 13  8  1  0
 14 13  1  0
 15  6  1  0
 16 14  2  0
 16  7  1  0
M  END
$$$$

     RDKit          3D

 15 15  0  0  0  0  0  0  0  0999 V2000
   38.7610   34.3500   28.5330 C   0  0  0  0  0  0  0  0  0  0  0  0
   40.1300   34.6840   28.4040 C   0  0  0  0  0  0  0  0  0  0  0  0
   38.4880   33.0840   28.8030 C   0  0  0  0  0  0  0  0  0  0  0  0
   35.3580   34.6140   28.4720 N   0  0  0  0  0  0  0  0  0  0  0  0
   41.1500   32.4460   28.1010 O   0  0  0  0  0  0  0  0  0  0  0  0
   35.6120   36.5800   27.9400 O   0  0  0  0  0  0  0  0  0  0  0  0
   36.1680   35.4930   28.3130 C   0  0  0  0  0  0  0  0  0  0  0  0
   42.0620   35.8440   27.7230 C   0  0  0  0  0  0  0  0  0  0  0  0
   38.1080   36.5210   27.4970 O   0  0  0  0  0  0  0  0  0  0  0  0
   41.1980   33.7250   28.1400 C   0  0  0  0  0  0  0  0  0  0  0  0
   42.2740   34.4000   27.7710 N   0  0  0  0  0  0  0  0  0  0  0  0
   42.3660   36.4620   26.3950 C   0  0  0  0  0  0  0  0  0  0  0  0
   40.7230   35.9170   28.4750 C   0  0  0  0  0  0  0  0  0  0  0  0
   40.1830   37.1630   28.5380 O   0  0  0  0  0  0  0  0  0  0  0  0
   37.6560   35.4170   28.4210 C   0  0  0  0  0  0  0  0  0  0  0  0
  1  3  2  0
  2 13  1  0
  2  1  1  0
  5 10  2  0
  6  7  2  0
  7 15  1  0
  7  4  1  0
  8 12  1  0
  8 11  1  0
  8 13  1  0
 10  2  1  0
 11 10  1  0
 13 14  1  0
 15  9  1  0
 15  1  1  0
M  END
$$$$

     RDKit          3D

  6  5  0  0  0  0  0  0  0  0999 V2000
   38.5200   32.0610   29.5490 C   0  0  0  0  0  0  0  0  0  0  0  0
   36.3350   33.0960   29.3870 C   0  0  0  0  0  0  0  0  0  0  0  0
   36.8160   34.5050   28.8710 N   0  0  0  0  0  0  0  0  0  0  0  0
   37.0230   32.2970   29.7950 C   0  0  0  0  0  0  0  0  0  0  0  0
   38.6750   30.6940   30.3030 C   0  0  0  0  0  0  0  0  0  0  0  0
   37.7580   29.7290   29.6870 N   0  0  0  0  0  0  0  0  0  0  0  0
  1  4  1  0
  1  5  1  0
  2  4  1  0
  3  2  1  0
  6  5  1  0
M  END
$$$$

     RDKit          3D

 23 25  0  0  0  0  0  0  0  0999 V2000
   39.4250   34.6190   29.1460 N   0  0  0  0  0  0  0  0  0  0  0  0
   36.8070   33.1930   30.7870 C   0  0  0  0  0  0  0  0  0  0  0  0
   39.9370   34.2530   28.0570 C   0  0  0  0  0  0  0  0  0  0  0  0
   42.1000   33.6400   23.2920 C   0  0  0  0  0  0  0  0  0  0  0  0
   33.6900   33.8710   33.7360 C   0  0  0  0  0  0  0  0  0  0  0  0
   36.9940   34.5390   31.2640 C   0  0  0  0  0  0  0  0  0  0  0  0
   39.7420   34.5000   24.7080 N   0  0  0  0  0  0  0  0  0  0  0  0
   37.5480   35.4580   30.4380 N   0  0  0  0  0  0  0  0  0  0  0  0
   34.4920   33.5200   33.0810 C   0  0  0  0  0  0  0  0  0  0  0  0
   35.9400   34.9140   32.1880 C   0  0  0  0  0  0  0  0  0  0  0  0
   41.3050   33.4160   26.3810 C   0  0  0  0  0  0  0  0  0  0  0  0
   41.5040   34.8810   23.3100 O   0  0  0  0  0  0  0  0  0  0  0  0
   40.2230   34.7640   23.5020 C   0  0  0  0  0  0  0  0  0  0  0  0
   36.0710   33.6500   31.7520 N   0  0  0  0  0  0  0  0  0  0  0  0
   40.9650   33.3260   27.8020 C   0  0  0  0  0  0  0  0  0  0  0  0
   39.3890   35.2470   22.3940 C   0  0  0  0  0  0  0  0  0  0  0  0
   40.2480   34.3020   25.8800 C   0  0  0  0  0  0  0  0  0  0  0  0
   38.2430   34.7140   29.4640 C   0  0  0  0  0  0  0  0  0  0  0  0
   39.6200   34.8940   26.9310 C   0  0  0  0  0  0  0  0  0  0  0  0
   37.9050   33.6010   29.0980 N   0  0  0  0  0  0  0  0  0  0  0  0
   32.4540   34.4330   34.2090 C   0  0  0  0  0  0  0  0  0  0  0  0
   38.7490   35.9630   27.0170 C   0  0  0  0  0  0  0  0  0  0  0  0
   35.2570   32.5490   32.4150 C   0  0  0  0  0  0  0  0  0  0  0  0
  1 18  1  0
  2  6  1  0
  2 14  1  0
  3  1  1  0
  4 12  1  0
  5 21  1  0
  6  8  1  0
  6 14  1  0
  6 10  1  0
  9  5  1  0
 11 15  1  0
 12 13  1  0
 13  7  2  3
 14 10  1  0
 14 23  1  0
 15  3  1  0
 16 13  1  0
 17  7  1  0
 17 11  1  0
 17 19  1  0
 18  8  1  0
 19 22  1  0
 19  3  2  0
 20 18  2  0
 23  9  1  0
M  END
$$$$

     RDKit          3D

 11 11  0  0  0  0  0  0  0  0999 V2000
   39.9430   31.3390   29.1680 O   0  0  0  0  0  0  0  0  0  0  0  0
   39.8350   34.6920   28.9640 C   0  0  0  0  0  0  0  0  0  0  0  0
   41.1440   37.0760   25.8220 C   0  0  0  0  0  0  0  0  0  0  0  0
   40.0410   37.3860   26.5980 C   0  0  0  0  0  0  0  0  0  0  0  0
   41.7040   35.8200   25.8790 C   0  0  0  0  0  0  0  0  0  0  0  0
   40.4290   32.4120   29.1100 C   0  0  0  0  0  0  0  0  0  0  0  0
   40.4190   35.3670   27.8690 C   0  0  0  0  0  0  0  0  0  0  0  0
   41.3820   34.9440   26.9240 C   0  0  0  0  0  0  0  0  0  0  0  0
   39.7980   36.5930   27.6970 C   0  0  0  0  0  0  0  0  0  0  0  0
   41.6240   32.5930   29.0450 O   0  0  0  0  0  0  0  0  0  0  0  0
   39.5150   33.5510   29.4390 C   0  0  0  0  0  0  0  0  0  0  0  0
  2 11  1  0
  3  5  2  0
  3  4  1  0
  4  9  2  0
  5  8  1  0
  6  1  1  0
  6 11  1  0
  7  2  1  0
  8  7  2  0
  9  7  1  0
 10  6  2  0
M  END
$$$$

     RDKit          3D

  4  3  0  0  0  0  0  0  0  0999 V2000
   37.8880   30.2990   29.8690 N   0  0  0  0  0  0  0  0  0  0  0  0
   39.5420   31.4480   28.4370 C   0  0  0  0  0  0  0  0  0  0  0  0
   38.5540   30.9290   29.4640 C   0  0  0  0  0  0  0  0  0  0  0  0
   40.0330   32.7430   28.5760 N   0  0  0  0  0  0  0  0  0  0  0  0
  2  4  1  0
  2  3  1  0
  3  1  3  0
M  END
$$$$

     RDKit          3D

  7  6  0  0  0  0  0  0  0  0999 V2000
   39.2170   31.1640   28.6580 O   0  0  0  0  0  0  0  0  0  0  0  0
   41.5880   34.3210   25.4610 S   0  0  0  0  0  0  0  0  0  0  0  0
   40.1290   33.1400   27.6900 C   0  0  0  0  0  0  0  0  0  0  0  0
   41.0760   31.8610   29.4630 O   0  0  0  0  0  0  0  0  0  0  0  0
   41.2840   33.3240   26.8240 C   0  0  0  0  0  0  0  0  0  0  0  0
   40.5950   34.7160   24.4910 C   0  0  0  0  0  0  0  0  0  0  0  0
   40.1750   31.9560   28.6380 C   0  0  0  0  0  0  0  0  0  0  0  0
  2  5  1  0
  3  7  1  0
  5  3  2  3
  6  2  2  0
  7  1  2  0
  7  4  1  0
M  END
$$$$

     RDKit          3D

  8  7  0  0  0  0  0  0  0  0999 V2000
   42.3820   33.6370   27.0270 F   0  0  0  0  0  0  0  0  0  0  0  0
   37.5850   34.7300   28.9190 C   0  0  0  0  0  0  0  0  0  0  0  0
   41.1380   34.1730   27.4690 C   0  0  0  0  0  0  0  0  0  0  0  0
   40.7020   32.9680   27.0080 F   0  0  0  0  0  0  0  0  0  0  0  0
   39.6290   36.0590   27.3760 O   0  0  0  0  0  0  0  0  0  0  0  0
   41.8910   34.3090   28.6380 F   0  0  0  0  0  0  0  0  0  0  0  0
   39.8110   35.0050   27.9100 C   0  0  0  0  0  0  0  0  0  0  0  0
   39.0700   34.6160   28.8710 N   0  0  0  0  0  0  0  0  0  0  0  0
  1  3  1  0
  3  7  1  0
  3  6  1  0
  4  3  1  0
  5  7  2  0
  7  8  1  0
  8  2  1  0
M  END
$$$$

     RDKit          3D

 19 20  0  0  0  0  0  0  0  0999 V2000
   40.1270   36.0190   26.5100 C   0  0  0  0  0  0  0  0  0  0  0  0
   37.4200   31.0250   30.5800 C   0  0  0  0  0  0  0  0  0  0  0  0
   38.2590   36.4030   27.8460 O   0  0  0  0  0  0  0  0  0  0  0  0
   39.4790   36.6790   25.4970 O   0  0  0  0  0  0  0  0  0  0  0  0
   39.3430   36.0420   27.7730 C   0  0  0  0  0  0  0  0  0  0  0  0
   36.9980   33.3480   30.2470 C   0  0  0  0  0  0  0  0  0  0  0  0
   41.8520   34.7120   28.4450 O   0  0  0  0  0  0  0  0  0  0  0  0
   40.1430   34.2420   26.4910 S   0  0  0  0  0  0  0  0  0  0  0  0
   37.7980   28.7470   30.8200 O   0  0  0  0  0  0  0  0  0  0  0  0
   36.7330   29.7920   32.4560 O   0  0  0  0  0  0  0  0  0  0  0  0
   38.6270   31.1680   29.8840 C   0  0  0  0  0  0  0  0  0  0  0  0
   40.2060   32.5500   28.9140 N   0  0  0  0  0  0  0  0  0  0  0  0
   40.6140   34.0840   28.3430 S   0  0  0  0  0  0  0  0  0  0  0  0
   38.2170   33.4830   29.6220 C   0  0  0  0  0  0  0  0  0  0  0  0
   37.1930   29.7380   31.2500 C   0  0  0  0  0  0  0  0  0  0  0  0
   39.6760   35.3700   28.9210 N   0  0  0  0  0  0  0  0  0  0  0  0
   39.0510   32.3980   29.4560 C   0  0  0  0  0  0  0  0  0  0  0  0
   36.6030   32.1240   30.7590 C   0  0  0  0  0  0  0  0  0  0  0  0
   41.2640   36.8730   26.3730 C   0  0  0  0  0  0  0  0  0  0  0  0
  1 19  1  0
  1  5  1  0
  2 18  1  0
  2 15  1  0
  4  1  1  0
  5  3  2  0
  5 16  1  0
  6 18  2  0
  8  1  1  0
  8 13  1  0
  9 15  2  0
 11  2  2  0
 12 17  1  0
 13  7  1  0
 13 12  1  0
 13 16  1  0
 14  6  1  0
 15 10  1  0
 17 14  2  0
 17 11  1  0
M  END
$$$$

     RDKit          3D

 14 15  0  0  0  0  0  0  0  0999 V2000
   39.7210   35.0660   29.1660 C   0  0  0  0  0  0  0  0  0  0  0  0
   39.9660   33.5390   29.1770 C   0  0  0  0  0  0  0  0  0  0  0  0
   39.2400   32.7220   29.8410 N   0  0  0  0  0  0  0  0  0  0  0  0
   41.7270   34.8920   27.0780 O   0  0  0  0  0  0  0  0  0  0  0  0
   38.2930   35.4460   29.4410 C   0  0  0  0  0  0  0  0  0  0  0  0
   36.9530   32.7620   30.1920 O   0  0  0  0  0  0  0  0  0  0  0  0
   39.0400   30.5860   30.8450 C   0  0  0  0  0  0  0  0  0  0  0  0
   41.8790   33.5590   27.7340 O   0  0  0  0  0  0  0  0  0  0  0  0
   38.0030   33.2490   30.1430 C   0  0  0  0  0  0  0  0  0  0  0  0
   37.5940   34.7720   29.8200 C   0  0  0  0  0  0  0  0  0  0  0  0
   40.9590   32.9500   28.4410 C   0  0  0  0  0  0  0  0  0  0  0  0
   36.1610   35.2880   29.9370 C   0  0  0  0  0  0  0  0  0  0  0  0
   39.7540   31.4880   29.8020 C   0  0  0  0  0  0  0  0  0  0  0  0
   40.7240   31.5930   28.8570 N   0  0  0  0  0  0  0  0  0  0  0  0
  1  5  1  0
  2  1  1  0
  2  3  1  0
  3  9  1  0
  4  8  1  0
  5 10  2  0
  8 11  1  0
  9  6  2  0
 10 12  1  0
 10  9  1  0
 11 14  2  0
 11  2  1  0
 13  3  1  0
 13  7  1  0
 14 13  1  0
M  END
$$$$

     RDKit          3D

  1  0  0  0  0  0  0  0  0  0999 V2000
   26.7730   -5.3600   36.8050 O   0  0  0  0  0  0  0  0  0  0  0  0
M  END
$$$$

     RDKit          3D

 11 11  0  0  0  0  0  0  0  0999 V2000
   39.5370   35.5460   28.0080 C   0  0  0  0  0  0  0  0  0  0  0  0
   41.7740   32.9650   26.0500 C   0  0  0  0  0  0  0  0  0  0  0  0
   41.3690   37.5010   27.1580 C   0  0  0  0  0  0  0  0  0  0  0  0
   39.8880   33.3960   27.1890 O   0  0  0  0  0  0  0  0  0  0  0  0
   41.9920   37.6560   25.7820 O   0  0  0  0  0  0  0  0  0  0  0  0
   37.6070   36.7050   27.3940 O   0  0  0  0  0  0  0  0  0  0  0  0
   40.9490   36.0860   27.6920 C   0  0  0  0  0  0  0  0  0  0  0  0
   41.1330   33.6570   27.0230 C   0  0  0  0  0  0  0  0  0  0  0  0
   38.6140   36.3010   27.3010 N   0  0  0  0  0  0  0  0  0  0  0  0
   41.7970   34.8120   27.9400 C   0  0  0  0  0  0  0  0  0  0  0  0
   39.2790   34.4620   27.1200 O   0  0  0  0  0  0  0  0  0  0  0  0
  1  9  1  0
  2  8  2  0
  5  3  1  0
  7  3  1  0
  7 10  1  0
  7  1  1  0
  8  4  1  0
  8 10  1  0
  9  6  2  0
 11  4  1  0
 11  1  1  0
M  END
$$$$
