
     RDKit          3D

 21 23  0  0  0  0  0  0  0  0999 V2000
   29.7520   34.6500   29.9240 C   0  0  0  0  0  0  0  0  0  0  0  0
   34.6050   36.6370   29.5510 C   0  0  0  0  0  0  0  0  0  0  0  0
   33.0200   37.4870   28.0760 C   0  0  0  0  0  0  0  0  0  0  0  0
   34.5740   38.8380   26.4950 C   0  0  0  0  0  0  0  0  0  0  0  0
   38.0890   37.9960   25.8450 C   0  0  0  0  0  0  0  0  0  0  0  0
   38.9400   37.2340   25.4240 O   0  0  0  0  0  0  0  0  0  0  0  0
   28.2710   35.4510   28.1650 N   0  0  0  0  0  0  0  0  0  0  0  0
   33.7130   35.8050   30.0270 N   0  0  0  0  0  0  0  0  0  0  0  0
   31.9390   36.5270   28.6600 C   0  0  0  0  0  0  0  0  0  0  0  0
   33.1180   38.5420   26.9310 C   0  0  0  0  0  0  0  0  0  0  0  0
   34.1880   37.5990   28.5860 C   0  0  0  0  0  0  0  0  0  0  0  0
   37.3410   39.8030   28.7490 O   0  0  0  0  0  0  0  0  0  0  0  0
   28.5410   34.4760   30.8290 C   0  0  0  0  0  0  0  0  0  0  0  0
   29.5360   35.8020   28.9200 C   0  0  0  0  0  0  0  0  0  0  0  0
   32.4370   35.7960   29.6050 C   0  0  0  0  0  0  0  0  0  0  0  0
   35.3750   38.6870   27.8620 N   0  0  0  0  0  0  0  0  0  0  0  0
   30.6680   36.3690   28.1910 C   0  0  0  0  0  0  0  0  0  0  0  0
   36.8380   39.2160   27.5660 S   0  0  0  0  0  0  0  0  0  0  0  0
   37.4880   37.7480   27.1030 N   0  0  0  0  0  0  0  0  0  0  0  0
   37.4550   40.2240   26.3290 C   0  0  0  0  0  0  0  0  0  0  0  0
   38.4880   39.3790   25.8180 N   0  0  0  0  0  0  0  0  0  0  0  0
  1 13  1  0
  2  8  1  0
  3 11  1  0
  3  9  2  0
  4 10  1  0
  4 16  1  0
  5  6  1  0
  5 19  1  0
  9 15  1  0
 10  3  1  0
 11  2  2  0
 14  7  1  0
 14  1  1  0
 15  8  2  0
 16 11  1  0
 17  9  1  0
 17 14  1  0
 18 16  1  0
 18 12  1  0
 19 18  1  0
 20 18  1  0
 21  5  1  0
 21 20  1  0
M  END
$$$$

     RDKit          3D

 22 24  0  0  0  0  0  0  0  0999 V2000
   36.4150   35.6000   29.6070 C   0  0  0  0  0  0  0  0  0  0  0  0
   36.5390   40.2370   22.6120 C   0  0  0  0  0  0  0  0  0  0  0  0
   35.6740   38.7350   24.4050 C   0  0  0  0  0  0  0  0  0  0  0  0
   35.4100   38.7110   26.0520 C   0  0  0  0  0  0  0  0  0  0  0  0
   37.5400   36.8480   27.2940 C   0  0  0  0  0  0  0  0  0  0  0  0
   34.6840   36.0480   31.2270 N   0  0  0  0  0  0  0  0  0  0  0  0
   34.4730   37.1000   29.1670 N   0  0  0  0  0  0  0  0  0  0  0  0
   36.2480   41.1380   21.7850 O   0  0  0  0  0  0  0  0  0  0  0  0
   33.1510   37.9500   31.0150 C   0  0  0  0  0  0  0  0  0  0  0  0
   36.8680   38.0840   23.9830 C   0  0  0  0  0  0  0  0  0  0  0  0
   34.7000   40.9220   24.1310 O   0  0  0  0  0  0  0  0  0  0  0  0
   35.2730   37.3670   26.5940 O   0  0  0  0  0  0  0  0  0  0  0  0
   35.7720   35.4180   30.8440 C   0  0  0  0  0  0  0  0  0  0  0  0
   35.8550   40.1460   23.9550 C   0  0  0  0  0  0  0  0  0  0  0  0
   37.3520   36.6710   24.5280 C   0  0  0  0  0  0  0  0  0  0  0  0
   36.1530   36.6570   27.5200 C   0  0  0  0  0  0  0  0  0  0  0  0
   38.5270   39.7070   21.1960 C   0  0  0  0  0  0  0  0  0  0  0  0
   38.0220   38.5160   23.3120 C   0  0  0  0  0  0  0  0  0  0  0  0
   34.1180   36.9470   30.4320 C   0  0  0  0  0  0  0  0  0  0  0  0
   35.6530   36.5240   28.9390 C   0  0  0  0  0  0  0  0  0  0  0  0
   38.0610   36.5820   25.8510 C   0  0  0  0  0  0  0  0  0  0  0  0
   37.7050   39.5130   22.4250 C   0  0  0  0  0  0  0  0  0  0  0  0
  1 13  2  0
  2 14  1  0
  3  4  1  0
  4 12  1  0
  7 19  1  0
  8  2  2  0
 10 18  1  0
 10  3  1  0
 10 15  1  0
 12 16  1  0
 13  6  1  0
 14 11  1  0
 14  3  1  0
 15 21  1  0
 16  5  1  0
 16 20  1  0
 19  9  1  0
 19  6  2  0
 20  7  1  0
 20  1  1  0
 21  5  1  0
 22 17  1  0
 22  2  1  0
 22 18  1  0
M  END
$$$$

     RDKit          3D

 23 24  0  0  0  0  0  0  0  0999 V2000
   37.0430   40.5470   28.8010 C   0  0  0  0  0  0  0  0  0  0  0  0
   36.6570   34.9600   30.7050 C   0  0  0  0  0  0  0  0  0  0  0  0
   33.6200   37.3880   29.8370 C   0  0  0  0  0  0  0  0  0  0  0  0
   37.8160   41.6420   26.5390 C   0  0  0  0  0  0  0  0  0  0  0  0
   32.0930   36.1320   31.1970 C   0  0  0  0  0  0  0  0  0  0  0  0
   34.5120   36.5690   30.3110 C   0  0  0  0  0  0  0  0  0  0  0  0
   35.3500   34.4690   30.8910 N   0  0  0  0  0  0  0  0  0  0  0  0
   38.4930   39.5440   27.2900 O   0  0  0  0  0  0  0  0  0  0  0  0
   39.0300   35.0440   31.0750 C   0  0  0  0  0  0  0  0  0  0  0  0
   36.6750   36.3130   30.4660 C   0  0  0  0  0  0  0  0  0  0  0  0
   34.2810   35.3670   30.8940 C   0  0  0  0  0  0  0  0  0  0  0  0
   38.1960   32.7440   30.7470 C   0  0  0  0  0  0  0  0  0  0  0  0
   37.0860   39.3460   29.6130 C   0  0  0  0  0  0  0  0  0  0  0  0
   36.4840   41.3560   25.7680 C   0  0  0  0  0  0  0  0  0  0  0  0
   37.8520   37.0720   30.5390 C   0  0  0  0  0  0  0  0  0  0  0  0
   37.9270   34.2290   30.8280 C   0  0  0  0  0  0  0  0  0  0  0  0
   37.9360   40.5850   27.5950 C   0  0  0  0  0  0  0  0  0  0  0  0
   33.0560   35.1750   31.4870 C   0  0  0  0  0  0  0  0  0  0  0  0
   38.3120   42.9360   24.5660 N   0  0  0  0  0  0  0  0  0  0  0  0
   32.3350   37.1400   30.2610 C   0  0  0  0  0  0  0  0  0  0  0  0
   38.9920   36.4440   30.9290 C   0  0  0  0  0  0  0  0  0  0  0  0
   38.8920   41.8310   25.4760 C   0  0  0  0  0  0  0  0  0  0  0  0
   38.0220   38.5250   30.2200 C   0  0  0  0  0  0  0  0  0  0  0  0
  1 13  1  0
  2 16  1  0
  2  7  1  0
  3 20  1  0
  3  6  1  0
  4 14  1  0
  4 17  1  0
  5 18  1  0
  6 11  1  0
  7 11  1  0
  8 17  2  0
 10 15  1  0
 10  2  2  0
 11 18  2  0
 12 16  1  0
 13 23  1  0
 15 21  2  0
 16  9  2  0
 17  1  1  0
 19 22  1  0
 20  5  2  0
 21  9  1  0
 22  4  1  0
 23 15  1  0
M  END
$$$$

     RDKit          3D

  9  8  0  0  0  0  0  0  0  0999 V2000
   35.1870   37.9230   26.8390 O   0  0  0  0  0  0  0  0  0  0  0  0
   36.6100   38.3960   24.8010 O   0  0  0  0  0  0  0  0  0  0  0  0
   38.2340   38.9460   26.5680 C   0  0  0  0  0  0  0  0  0  0  0  0
   40.6140   39.4390   26.0440 O   0  0  0  0  0  0  0  0  0  0  0  0
   36.8930   39.3830   25.8930 C   0  0  0  0  0  0  0  0  0  0  0  0
   39.2920   39.0470   24.4240 O   0  0  0  0  0  0  0  0  0  0  0  0
   34.3270   39.8680   26.4530 C   0  0  0  0  0  0  0  0  0  0  0  0
   35.6660   39.2900   26.8270 C   0  0  0  0  0  0  0  0  0  0  0  0
   39.4140   39.1700   25.6550 C   0  0  0  0  0  0  0  0  0  0  0  0
  5  2  1  0
  5  3  1  0
  5  8  1  0
  6  9  2  0
  8  7  1  0
  8  1  1  0
  9  4  1  0
  9  3  1  0
M  END
$$$$

     RDKit          3D

 12 12  0  0  0  0  0  0  0  0999 V2000
   33.9460   37.7910   28.7780 C   0  0  0  0  0  0  0  0  0  0  0  0
   35.4750   38.8660   27.1490 C   0  0  0  0  0  0  0  0  0  0  0  0
   36.5790   38.5020   27.8980 C   0  0  0  0  0  0  0  0  0  0  0  0
   36.8370   37.3400   28.6350 C   0  0  0  0  0  0  0  0  0  0  0  0
   36.8140   39.9700   25.4560 O   0  0  0  0  0  0  0  0  0  0  0  0
   36.0570   37.0540   29.8250 O   0  0  0  0  0  0  0  0  0  0  0  0
   35.6110   39.6300   25.9740 C   0  0  0  0  0  0  0  0  0  0  0  0
   34.7160   37.1380   29.7360 C   0  0  0  0  0  0  0  0  0  0  0  0
   34.1290   36.4760   30.7090 N   0  0  0  0  0  0  0  0  0  0  0  0
   37.7340   40.5320   26.3610 O   0  0  0  0  0  0  0  0  0  0  0  0
   34.1610   38.4430   27.6450 C   0  0  0  0  0  0  0  0  0  0  0  0
   34.5980   39.8230   25.1890 O   0  0  0  0  0  0  0  0  0  0  0  0
  1  8  2  0
  2 11  2  0
  2  3  1  0
  3  4  2  0
  4  6  1  0
  5  7  1  0
  5 10  1  0
  7  2  1  0
  8  6  1  0
  8  9  1  0
 11  1  1  0
 12  7  2  0
M  END
$$$$

     RDKit          3D

 21 21  0  0  0  0  0  0  0  0999 V2000
   39.5780   40.8950   25.5270 C   0  0  0  0  0  0  0  0  0  0  0  0
   33.9410   35.1380   31.0200 O   0  0  0  0  0  0  0  0  0  0  0  0
   37.3470   32.8850   32.7810 C   0  0  0  0  0  0  0  0  0  0  0  0
   38.3700   39.9220   25.8690 C   0  0  0  0  0  0  0  0  0  0  0  0
   40.1440   41.7100   26.5600 O   0  0  0  0  0  0  0  0  0  0  0  0
   36.1850   35.8270   30.5380 C   0  0  0  0  0  0  0  0  0  0  0  0
   38.5940   33.5480   33.1710 N   0  0  0  0  0  0  0  0  0  0  0  0
   34.7390   35.9460   30.3920 C   0  0  0  0  0  0  0  0  0  0  0  0
   38.3110   38.8600   28.8850 C   0  0  0  0  0  0  0  0  0  0  0  0
   36.6860   39.8520   27.6760 C   0  0  0  0  0  0  0  0  0  0  0  0
   36.9880   36.8080   29.8240 C   0  0  0  0  0  0  0  0  0  0  0  0
   37.0840   38.8610   28.6040 C   0  0  0  0  0  0  0  0  0  0  0  0
   38.3940   36.4870   29.8480 C   0  0  0  0  0  0  0  0  0  0  0  0
   36.8270   34.8430   31.4420 C   0  0  0  0  0  0  0  0  0  0  0  0
   36.4300   33.7630   32.1630 C   0  0  0  0  0  0  0  0  0  0  0  0
   34.0040   36.9970   29.5970 C   0  0  0  0  0  0  0  0  0  0  0  0
   37.8950   40.5970   27.1140 C   0  0  0  0  0  0  0  0  0  0  0  0
   35.4820   40.3980   26.9760 C   0  0  0  0  0  0  0  0  0  0  0  0
   34.9900   37.8710   29.0130 O   0  0  0  0  0  0  0  0  0  0  0  0
   39.3400   41.6180   24.3420 O   0  0  0  0  0  0  0  0  0  0  0  0
   36.3250   37.8120   29.1760 C   0  0  0  0  0  0  0  0  0  0  0  0
  1  4  1  0
  1  5  1  0
  3  7  1  0
  4 17  1  0
  6 14  1  0
  8  6  2  0
  8  2  1  0
 10 18  1  0
 10 12  1  0
 11 13  1  0
 11  6  1  0
 12  9  2  0
 12 21  1  0
 14 15  2  3
 15  3  1  0
 16  8  1  0
 17 10  1  0
 19 21  1  0
 19 16  1  0
 20  1  1  0
 21 11  2  0
M  END
$$$$

     RDKit          3D

  5  4  0  0  0  0  0  0  0  0999 V2000
   37.1510   37.0110   23.6490 C   0  0  0  0  0  0  0  0  0  0  0  0
   35.9960   38.9000   22.7540 C   0  0  0  0  0  0  0  0  0  0  0  0
   38.1710   39.1260   23.2730 C   0  0  0  0  0  0  0  0  0  0  0  0
   36.8910   38.4410   23.7490 N   0  0  0  0  0  0  0  0  0  0  0  0
   36.5180   38.7270   25.1790 C   0  0  0  0  0  0  0  0  0  0  0  0
  1  4  1  0
  2  4  1  0
  3  4  1  0
  4  5  1  0
M  END
$$$$

     RDKit          3D

 23 25  0  0  0  0  0  0  0  0999 V2000
   37.5580   36.4820   26.9860 C   0  0  0  0  0  0  0  0  0  0  0  0
   37.6490   37.8260   27.6230 C   0  0  0  0  0  0  0  0  0  0  0  0
   36.5180   41.9300   26.5020 C   0  0  0  0  0  0  0  0  0  0  0  0
   35.1820   35.3250   31.3380 C   0  0  0  0  0  0  0  0  0  0  0  0
   38.7910   37.9800   28.6320 C   0  0  0  0  0  0  0  0  0  0  0  0
   36.2810   34.4130   31.1550 C   0  0  0  0  0  0  0  0  0  0  0  0
   37.1790   34.5610   30.1180 C   0  0  0  0  0  0  0  0  0  0  0  0
   32.1660   34.8140   33.2480 C   0  0  0  0  0  0  0  0  0  0  0  0
   34.0930   35.2370   32.2980 C   0  0  0  0  0  0  0  0  0  0  0  0
   37.4210   39.0320   26.7390 C   0  0  0  0  0  0  0  0  0  0  0  0
   33.1090   34.2380   35.6390 C   0  0  0  0  0  0  0  0  0  0  0  0
   37.7140   35.5280   28.1060 N   0  0  0  0  0  0  0  0  0  0  0  0
   36.4630   38.6750   27.8780 C   0  0  0  0  0  0  0  0  0  0  0  0
   34.1880   35.1270   33.6700 C   0  0  0  0  0  0  0  0  0  0  0  0
   38.7790   39.6830   26.5500 O   0  0  0  0  0  0  0  0  0  0  0  0
   32.7660   35.3310   32.1800 C   0  0  0  0  0  0  0  0  0  0  0  0
   36.8420   35.6380   29.1370 C   0  0  0  0  0  0  0  0  0  0  0  0
   36.6550   39.5830   25.5930 N   0  0  0  0  0  0  0  0  0  0  0  0
   34.7390   40.9820   25.0160 C   0  0  0  0  0  0  0  0  0  0  0  0
   35.8630   36.4960   29.3810 C   0  0  0  0  0  0  0  0  0  0  0  0
   36.1250   40.8370   25.6970 C   0  0  0  0  0  0  0  0  0  0  0  0
   33.0700   34.7530   34.2130 N   0  0  0  0  0  0  0  0  0  0  0  0
   35.4070   36.3900   30.6320 C   0  0  0  0  0  0  0  0  0  0  0  0
  1  2  1  0
  1 12  1  0
  2 13  1  0
  2  5  1  0
  4 23  1  0
  4  9  1  0
  6  4  1  0
  7  6  2  0
  8 22  1  0
  9 16  1  0
  9 14  1  0
 10 15  1  0
 10  2  1  0
 10 13  1  0
 12 17  2  3
 14 22  1  0
 16  8  1  0
 17 20  1  0
 17  7  1  0
 18 21  1  0
 18 10  1  0
 19 21  1  0
 20 23  1  0
 21  3  1  0
 22 11  1  0
M  END
$$$$

     RDKit          3D

 24 26  0  0  0  0  0  0  0  0999 V2000
   32.9310   36.3690   31.2720 N   0  0  0  0  0  0  0  0  0  0  0  0
   34.8210   36.8360   29.7670 C   0  0  0  0  0  0  0  0  0  0  0  0
   36.1900   34.7140   30.8490 C   0  0  0  0  0  0  0  0  0  0  0  0
   37.8560   38.1600   27.9580 N   0  0  0  0  0  0  0  0  0  0  0  0
   38.0540   40.5870   24.9570 S   0  0  0  0  0  0  0  0  0  0  0  0
   36.8520   35.5850   29.8450 C   0  0  0  0  0  0  0  0  0  0  0  0
   34.9180   35.0030   31.2920 N   0  0  0  0  0  0  0  0  0  0  0  0
   38.1130   39.0290   27.0160 N   0  0  0  0  0  0  0  0  0  0  0  0
   37.1820   41.7430   24.3080 C   0  0  0  0  0  0  0  0  0  0  0  0
   31.8130   37.9770   23.8400 N   0  0  0  0  0  0  0  0  0  0  0  0
   34.3800   38.1000   27.7970 N   0  0  0  0  0  0  0  0  0  0  0  0
   33.8510   37.8990   22.7630 O   0  0  0  0  0  0  0  0  0  0  0  0
   35.9690   38.9370   26.1530 C   0  0  0  0  0  0  0  0  0  0  0  0
   34.2190   36.0300   30.7610 C   0  0  0  0  0  0  0  0  0  0  0  0
   35.6770   38.1950   27.3850 C   0  0  0  0  0  0  0  0  0  0  0  0
   35.0490   39.1990   25.1210 C   0  0  0  0  0  0  0  0  0  0  0  0
   35.7430   41.4090   24.0500 C   0  0  0  0  0  0  0  0  0  0  0  0
   33.1120   38.1240   23.7640 C   0  0  0  0  0  0  0  0  0  0  0  0
   36.1680   36.6050   29.2410 C   0  0  0  0  0  0  0  0  0  0  0  0
   36.7850   33.6040   31.4290 N   0  0  0  0  0  0  0  0  0  0  0  0
   37.3020   39.4380   25.9910 C   0  0  0  0  0  0  0  0  0  0  0  0
   35.7440   39.9180   24.0390 O   0  0  0  0  0  0  0  0  0  0  0  0
   33.8820   38.1840   25.1230 C   0  0  0  0  0  0  0  0  0  0  0  0
   36.6190   37.6350   28.2430 C   0  0  0  0  0  0  0  0  0  0  0  0
  2 14  1  0
  3  7  1  0
  3 20  1  0
  4 24  1  0
  5 21  1  0
  6  3  2  0
  8  4  2  0
  9  5  1  0
 12 18  2  0
 13 15  1  0
 14  1  1  0
 14  7  2  0
 15 11  1  0
 15 24  2  0
 16 23  1  0
 16 13  1  0
 17  9  1  0
 18 10  1  0
 18 23  1  0
 19  2  2  0
 19  6  1  0
 21 13  2  0
 21  8  1  0
 22 17  1  0
 22 16  1  0
 24 19  1  0
M  END
$$$$

     RDKit          3D

  4  3  0  0  0  0  0  0  0  0999 V2000
   37.1290   36.6690   26.6760 N   0  0  0  0  0  0  0  0  0  0  0  0
   34.9700   36.6620   28.7450 O   0  0  0  0  0  0  0  0  0  0  0  0
   34.5100   36.9840   27.5180 C   0  0  0  0  0  0  0  0  0  0  0  0
   35.7790   36.7910   26.6930 C   0  0  0  0  0  0  0  0  0  0  0  0
  1  4  1  0
  3  2  1  0
  4  3  1  0
M  END
$$$$

     RDKit          3D

 10 10  0  0  0  0  0  0  0  0999 V2000
   33.5440   40.5130   24.9720 N   0  0  0  0  0  0  0  0  0  0  0  0
   36.6490   40.5620   25.1620 C   0  0  0  0  0  0  0  0  0  0  0  0
   36.1960   38.2120   24.7380 C   0  0  0  0  0  0  0  0  0  0  0  0
   37.9020   40.2360   25.6630 C   0  0  0  0  0  0  0  0  0  0  0  0
   33.6190   38.7250   23.9980 O   0  0  0  0  0  0  0  0  0  0  0  0
   34.4050   39.7760   24.4950 C   0  0  0  0  0  0  0  0  0  0  0  0
   35.7520   39.5430   24.8280 C   0  0  0  0  0  0  0  0  0  0  0  0
   38.3130   38.9120   25.5910 C   0  0  0  0  0  0  0  0  0  0  0  0
   37.5240   37.9110   25.0240 C   0  0  0  0  0  0  0  0  0  0  0  0
   39.7740   38.6390   25.7400 C   0  0  0  0  0  0  0  0  0  0  0  0
  2  4  1  0
  3  7  1  0
  3  9  2  0
  5  6  2  0
  6  7  1  0
  6  1  1  0
  7  2  2  0
  8  4  2  0
  8 10  1  0
  9  8  1  0
M  END
$$$$

     RDKit          3D

  9  9  0  0  0  0  0  0  0  0999 V2000
   36.2500   37.7890   27.5550 C   0  0  0  0  0  0  0  0  0  0  0  0
   33.4650   37.6350   28.4450 C   0  0  0  0  0  0  0  0  0  0  0  0
   37.4300   37.9380   26.7640 C   0  0  0  0  0  0  0  0  0  0  0  0
   38.2190   36.9690   26.3040 O   0  0  0  0  0  0  0  0  0  0  0  0
   35.1900   38.0880   26.7520 C   0  0  0  0  0  0  0  0  0  0  0  0
   33.9790   37.5380   27.1000 O   0  0  0  0  0  0  0  0  0  0  0  0
   36.9040   38.7270   25.4500 C   0  0  0  0  0  0  0  0  0  0  0  0
   38.3500   38.7380   27.3830 O   0  0  0  0  0  0  0  0  0  0  0  0
   35.4190   38.6480   25.5440 C   0  0  0  0  0  0  0  0  0  0  0  0
  3  8  1  0
  3  1  1  0
  4  3  1  0
  5  6  1  0
  5  1  1  0
  6  2  1  0
  7  9  1  0
  7  3  1  0
  9  5  1  0
M  END
$$$$

     RDKit          3D

  8  8  0  0  0  0  0  0  0  0999 V2000
   37.2250   37.0090   25.4310 C   0  0  0  0  0  0  0  0  0  0  0  0
   36.2450   39.2520   24.9730 C   0  0  0  0  0  0  0  0  0  0  0  0
   38.5720   40.1710   24.8740 C   0  0  0  0  0  0  0  0  0  0  0  0
   37.3360   38.2400   25.0810 N   0  0  0  0  0  0  0  0  0  0  0  0
   38.5070   38.7720   24.2860 C   0  0  0  0  0  0  0  0  0  0  0  0
   36.9880   40.5040   24.6810 C   0  0  0  0  0  0  0  0  0  0  0  0
   39.0870   40.5910   26.0780 C   0  0  0  0  0  0  0  0  0  0  0  0
   39.1430   41.3650   24.1750 C   0  0  0  0  0  0  0  0  0  0  0  0
  2  4  1  0
  3  7  1  0
  4  1  1  0
  5  3  1  0
  5  4  1  0
  6  3  1  0
  6  2  1  0
  8  3  1  0
M  END
$$$$

     RDKit          3D

 10  9  0  0  0  0  0  0  0  0999 V2000
   31.4230   35.8830   29.6660 C   0  0  0  0  0  0  0  0  0  0  0  0
   35.7530   39.0170   24.8620 O   0  0  0  0  0  0  0  0  0  0  0  0
   36.6650   39.6590   25.8350 C   0  0  0  0  0  0  0  0  0  0  0  0
   35.9780   39.6920   27.2120 C   0  0  0  0  0  0  0  0  0  0  0  0
   35.3040   38.3890   27.5130 C   0  0  0  0  0  0  0  0  0  0  0  0
   33.2620   37.1880   28.6360 C   0  0  0  0  0  0  0  0  0  0  0  0
   31.9460   37.3320   29.4790 C   0  0  0  0  0  0  0  0  0  0  0  0
   34.1800   38.4100   28.5640 C   0  0  0  0  0  0  0  0  0  0  0  0
   37.7660   39.0100   25.2360 C   0  0  0  0  0  0  0  0  0  0  0  0
   36.2410   37.3070   27.1400 O   0  0  0  0  0  0  0  0  0  0  0  0
  2  3  1  0
  3  9  1  0
  3  4  1  0
  4  5  1  0
  5 10  1  0
  5  8  1  0
  6  7  1  0
  7  1  1  0
  8  6  2  3
M  END
$$$$

     RDKit          3D

  8  7  0  0  0  0  0  0  0  0999 V2000
   36.3890   38.5910   26.8790 C   0  0  0  0  0  0  0  0  0  0  0  0
   37.4960   39.5790   26.6840 C   0  0  0  0  0  0  0  0  0  0  0  0
   36.6000   37.5880   27.5510 O   0  0  0  0  0  0  0  0  0  0  0  0
   38.8150   39.4200   27.8540 P   0  0  0  0  0  0  0  0  0  0  0  0
   38.4030   38.5960   29.0070 O   0  0  0  0  0  0  0  0  0  0  0  0
   39.9860   38.8250   27.0770 O   0  0  0  0  0  0  0  0  0  0  0  0
   35.3520   38.7160   26.2190 O   0  0  0  0  0  0  0  0  0  0  0  0
   39.2830   40.7330   28.2100 O   0  0  0  0  0  0  0  0  0  0  0  0
  1  3  1  0
  2  1  1  0
  2  4  1  0
  4  8  1  0
  4  5  1  0
  6  4  2  0
  7  1  2  0
M  END
$$$$

     RDKit          3D

 25 27  0  0  0  0  0  0  0  0999 V2000
   36.1480   38.0500   27.4830 C   0  0  0  0  0  0  0  0  0  0  0  0
   36.2350   38.2660   26.0270 C   0  0  0  0  0  0  0  0  0  0  0  0
   37.8070   33.5760   33.9790 C   0  0  0  0  0  0  0  0  0  0  0  0
   37.1220   37.0450   29.5650 C   0  0  0  0  0  0  0  0  0  0  0  0
   32.8570   36.4490   27.9200 O   0  0  0  0  0  0  0  0  0  0  0  0
   38.2370   33.0860   31.3720 C   0  0  0  0  0  0  0  0  0  0  0  0
   34.8730   38.1290   28.1470 O   0  0  0  0  0  0  0  0  0  0  0  0
   37.1970   40.1510   23.8010 O   0  0  0  0  0  0  0  0  0  0  0  0
   36.7680   35.1410   30.7680 N   0  0  0  0  0  0  0  0  0  0  0  0
   36.9490   40.7300   25.2220 S   0  0  0  0  0  0  0  0  0  0  0  0
   37.8910   40.9250   26.2000 O   0  0  0  0  0  0  0  0  0  0  0  0
   37.8320   32.2520   33.6340 N   0  0  0  0  0  0  0  0  0  0  0  0
   39.3170   33.9870   36.3520 C   0  0  0  0  0  0  0  0  0  0  0  0
   35.7180   39.6710   25.8530 C   0  0  0  0  0  0  0  0  0  0  0  0
   37.0620   34.3720   33.0920 C   0  0  0  0  0  0  0  0  0  0  0  0
   38.3220   33.6430   35.4180 C   0  0  0  0  0  0  0  0  0  0  0  0
   33.8440   37.0330   30.2400 O   0  0  0  0  0  0  0  0  0  0  0  0
   35.8130   42.0000   24.8480 C   0  0  0  0  0  0  0  0  0  0  0  0
   37.9610   34.7550   36.2160 C   0  0  0  0  0  0  0  0  0  0  0  0
   37.9900   31.8620   32.2380 C   0  0  0  0  0  0  0  0  0  0  0  0
   34.0540   36.9010   28.8220 S   0  0  0  0  0  0  0  0  0  0  0  0
   37.0290   33.9930   31.6160 C   0  0  0  0  0  0  0  0  0  0  0  0
   35.2980   35.7490   28.8840 O   0  0  0  0  0  0  0  0  0  0  0  0
   37.3190   37.4720   28.1400 C   0  0  0  0  0  0  0  0  0  0  0  0
   36.6610   35.5920   29.3850 C   0  0  0  0  0  0  0  0  0  0  0  0
  1 24  2  0
  1  7  1  0
  2  1  1  0
  3 16  1  0
  5 21  1  0
  6 22  1  0
  6 20  1  0
  7 21  1  0
  8 10  2  0
 10 14  1  0
 10 11  2  0
 12  3  1  0
 14  2  1  0
 15  3  1  0
 16 19  1  0
 16 13  1  0
 18 10  1  0
 19 13  1  0
 20 12  1  0
 21 23  1  0
 21 17  1  0
 22  9  1  0
 22 15  1  0
 23 25  1  0
 24  4  1  0
 25  4  1  0
 25  9  1  0
M  END
$$$$

     RDKit          3D

 23 25  0  0  0  0  0  0  0  0999 V2000
   37.8280   35.5790   31.4210 C   0  0  0  0  0  0  0  0  0  0  0  0
   31.4080   36.8730   32.6950 C   0  0  0  0  0  0  0  0  0  0  0  0
   31.7460   35.6830   31.8480 C   0  0  0  0  0  0  0  0  0  0  0  0
   39.3390   40.6920   27.5940 C   0  0  0  0  0  0  0  0  0  0  0  0
   32.0720   36.0370   30.3990 C   0  0  0  0  0  0  0  0  0  0  0  0
   38.3490   42.2670   30.6600 O   0  0  0  0  0  0  0  0  0  0  0  0
   38.4870   39.9620   30.3710 C   0  0  0  0  0  0  0  0  0  0  0  0
   32.3970   37.8150   33.0740 O   0  0  0  0  0  0  0  0  0  0  0  0
   37.2130   37.9450   29.4720 N   0  0  0  0  0  0  0  0  0  0  0  0
   38.0630   34.0610   31.5990 C   0  0  0  0  0  0  0  0  0  0  0  0
   38.2350   39.0010   29.2790 C   0  0  0  0  0  0  0  0  0  0  0  0
   38.9190   36.4620   30.8400 C   0  0  0  0  0  0  0  0  0  0  0  0
   37.4690   36.9470   30.5660 C   0  0  0  0  0  0  0  0  0  0  0  0
   39.5810   41.5670   28.8470 C   0  0  0  0  0  0  0  0  0  0  0  0
   36.6710   35.7310   30.6690 O   0  0  0  0  0  0  0  0  0  0  0  0
   34.8750   37.6790   28.7100 C   0  0  0  0  0  0  0  0  0  0  0  0
   33.4650   36.2910   30.2190 O   0  0  0  0  0  0  0  0  0  0  0  0
   38.7470   41.2400   29.8910 C   0  0  0  0  0  0  0  0  0  0  0  0
   36.1330   37.9120   28.5060 C   0  0  0  0  0  0  0  0  0  0  0  0
   38.7100   39.2390   27.8370 C   0  0  0  0  0  0  0  0  0  0  0  0
   39.2870   33.7650   31.8610 O   0  0  0  0  0  0  0  0  0  0  0  0
   33.7590   36.9650   28.9210 C   0  0  0  0  0  0  0  0  0  0  0  0
   37.1690   33.2690   31.8850 O   0  0  0  0  0  0  0  0  0  0  0  0
  1 10  1  0
  2  8  1  0
  3  2  1  0
  4 20  1  0
  4 14  1  0
  5  3  1  0
 10 21  2  0
 10 23  1  0
 11  9  1  0
 11  7  1  0
 12  1  1  0
 13  9  1  0
 13 15  1  0
 13 12  1  0
 13  1  1  0
 14 18  1  0
 15  1  1  0
 16 22  2  0
 17  5  1  0
 18  7  1  0
 18  6  1  0
 19 16  2  0
 19  9  1  0
 20 11  1  0
 22 17  1  0
M  END
$$$$

     RDKit          3D

  9 10  0  0  0  0  0  0  0  0999 V2000
   35.7540   37.8090   27.1530 C   0  0  0  0  0  0  0  0  0  0  0  0
   33.4710   37.8320   27.8280 C   0  0  0  0  0  0  0  0  0  0  0  0
   34.7960   37.4430   28.0750 C   0  0  0  0  0  0  0  0  0  0  0  0
   37.8380   38.4330   26.3260 C   0  0  0  0  0  0  0  0  0  0  0  0
   36.7760   39.0150   25.4290 C   0  0  0  0  0  0  0  0  0  0  0  0
   37.1690   37.3490   27.1560 C   0  0  0  0  0  0  0  0  0  0  0  0
   33.1520   38.5080   26.7580 C   0  0  0  0  0  0  0  0  0  0  0  0
   34.1970   38.9220   25.8460 C   0  0  0  0  0  0  0  0  0  0  0  0
   35.5040   38.6220   26.0950 C   0  0  0  0  0  0  0  0  0  0  0  0
  1  6  1  0
  1  3  1  0
  2  3  2  0
  4  6  1  0
  5  9  1  0
  5  4  1  0
  7  2  1  0
  8  9  1  0
  8  7  2  0
  9  1  2  0
M  END
$$$$

     RDKit          3D

  2  1  0  0  0  0  0  0  0  0999 V2000
   38.7360   37.3420   26.2930 Br  0  0  0  0  0  0  0  0  0  0  0  0
   36.7090   37.0890   25.9810 N   0  0  0  0  0  0  0  0  0  0  0  0
  2  1  1  0
M  END
$$$$

     RDKit          3D

 12 12  0  0  0  0  0  0  0  0999 V2000
   39.3640   37.9010   28.0830 C   0  0  0  0  0  0  0  0  0  0  0  0
   37.3170   38.7820   29.7220 N   0  0  0  0  0  0  0  0  0  0  0  0
   37.4370   39.0890   27.1420 C   0  0  0  0  0  0  0  0  0  0  0  0
   36.9140   35.4840   29.2110 C   0  0  0  0  0  0  0  0  0  0  0  0
   38.4100   40.6640   30.2700 C   0  0  0  0  0  0  0  0  0  0  0  0
   36.7890   36.6390   30.1930 C   0  0  0  0  0  0  0  0  0  0  0  0
   38.3260   38.9790   28.5110 C   0  0  0  0  0  0  0  0  0  0  0  0
   35.3090   38.0470   28.9450 O   0  0  0  0  0  0  0  0  0  0  0  0
   39.3570   39.9260   29.3710 C   0  0  0  0  0  0  0  0  0  0  0  0
   37.7860   39.3960   30.8140 O   0  0  0  0  0  0  0  0  0  0  0  0
   36.3560   37.8490   29.6000 C   0  0  0  0  0  0  0  0  0  0  0  0
   37.7670   36.7170   31.1180 O   0  0  0  0  0  0  0  0  0  0  0  0
  1  7  1  0
  2 10  1  0
  3  7  1  0
  5 10  1  0
  6  4  1  0
  6 12  1  0
  7  9  1  0
  7  2  1  0
  8 11  2  0
  9  5  1  0
 11  2  1  0
 11  6  1  0
M  END
$$$$
