
     RDKit          3D

 17 17  0  0  0  0  0  0  0  0999 V2000
   37.7790   37.9520   24.9920 C   0  0  0  0  0  0  0  0  0  0  0  0
   37.8690   39.8010   26.3750 C   0  0  0  0  0  0  0  0  0  0  0  0
   38.9560   40.6140   26.6880 C   0  0  0  0  0  0  0  0  0  0  0  0
   39.0340   38.3300   24.6100 N   0  0  0  0  0  0  0  0  0  0  0  0
   36.1140   35.7110   22.7550 N   0  0  0  0  0  0  0  0  0  0  0  0
   39.9370   42.6880   27.4860 C   0  0  0  0  0  0  0  0  0  0  0  0
   34.9730   38.5900   25.8700 C   0  0  0  0  0  0  0  0  0  0  0  0
   35.8320   39.6630   25.5080 C   0  0  0  0  0  0  0  0  0  0  0  0
   35.3340   37.9660   23.5530 C   0  0  0  0  0  0  0  0  0  0  0  0
   36.7790   37.5420   23.9400 C   0  0  0  0  0  0  0  0  0  0  0  0
   36.4490   41.0080   27.6990 C   0  0  0  0  0  0  0  0  0  0  0  0
   37.4210   42.0000   27.8430 C   0  0  0  0  0  0  0  0  0  0  0  0
   34.3990   37.9830   24.6010 C   0  0  0  0  0  0  0  0  0  0  0  0
   38.7170   41.7890   27.3820 C   0  0  0  0  0  0  0  0  0  0  0  0
   34.7940   38.0320   27.1030 C   0  0  0  0  0  0  0  0  0  0  0  0
   36.6510   40.1330   26.6290 C   0  0  0  0  0  0  0  0  0  0  0  0
   36.7490   36.0150   24.1490 C   0  0  0  0  0  0  0  0  0  0  0  0
  2 16  2  0
  2  3  1  0
  3 14  2  0
  4  1  1  0
  5 17  1  0
  7 15  2  0
  8  7  1  0
  8 16  1  0
  9 10  1  0
  9 13  1  0
 10 17  1  0
 10  1  1  0
 11 12  2  0
 13  7  1  0
 14  6  1  0
 14 12  1  0
 16 11  1  0
M  END
$$$$

     RDKit          3D

 12 12  0  0  0  0  0  0  0  0999 V2000
   39.5330   37.1020   19.8950 O   0  0  0  0  0  0  0  0  0  0  0  0
   39.9610   39.2840   20.1230 O   0  0  0  0  0  0  0  0  0  0  0  0
   35.6960   38.7420   22.3670 O   0  0  0  0  0  0  0  0  0  0  0  0
   39.0930   38.5430   22.9370 C   0  0  0  0  0  0  0  0  0  0  0  0
   36.7890   38.5860   23.4090 C   0  0  0  0  0  0  0  0  0  0  0  0
   36.7040   36.8220   24.8310 O   0  0  0  0  0  0  0  0  0  0  0  0
   38.0690   39.1760   23.8520 C   0  0  0  0  0  0  0  0  0  0  0  0
   36.9560   37.0230   23.3450 C   0  0  0  0  0  0  0  0  0  0  0  0
   35.9230   36.1120   22.8810 F   0  0  0  0  0  0  0  0  0  0  0  0
   38.3820   38.2850   21.6230 C   0  0  0  0  0  0  0  0  0  0  0  0
   39.4150   38.2160   20.5280 C   0  0  0  0  0  0  0  0  0  0  0  0
   37.6000   37.0800   21.8260 O   0  0  0  0  0  0  0  0  0  0  0  0
  1 11  2  0
  2 11  1  0
  4  7  1  0
  5  3  1  0
  5  7  1  0
  8  9  1  0
  8  5  1  0
  8  6  1  0
 10 11  1  0
 10 12  1  0
 10  4  1  0
 12  8  1  0
M  END
$$$$

     RDKit          3D

  8  7  0  0  0  0  0  0  0  0999 V2000
   39.9620   40.5560   23.3880 C   0  0  0  0  0  0  0  0  0  0  0  0
   39.2700   39.2630   26.0030 O   0  0  0  0  0  0  0  0  0  0  0  0
   38.4360   38.7230   23.7350 C   0  0  0  0  0  0  0  0  0  0  0  0
   39.9970   41.8810   24.2490 C   0  0  0  0  0  0  0  0  0  0  0  0
   39.4930   38.5040   24.8150 C   0  0  0  0  0  0  0  0  0  0  0  0
   37.1640   38.7580   24.3950 O   0  0  0  0  0  0  0  0  0  0  0  0
   38.0730   40.1340   22.0580 N   0  0  0  0  0  0  0  0  0  0  0  0
   38.6580   40.1080   23.1660 C   0  0  0  0  0  0  0  0  0  0  0  0
  1  4  1  0
  3  6  1  0
  3  5  1  0
  5  2  1  0
  8  7  1  0
  8  1  1  0
  8  3  1  0
M  END
$$$$

     RDKit          3D

 16 16  0  0  0  0  0  0  0  0999 V2000
   31.7860   31.4610   32.0020 C   0  0  0  0  0  0  0  0  0  0  0  0
   37.3440   37.0650   28.9140 C   0  0  0  0  0  0  0  0  0  0  0  0
   33.7490   32.3980   34.7410 C   0  0  0  0  0  0  0  0  0  0  0  0
   35.9800   34.7660   31.8230 C   0  0  0  0  0  0  0  0  0  0  0  0
   32.0870   30.1930   32.6020 O   0  0  0  0  0  0  0  0  0  0  0  0
   38.1150   35.5310   30.5990 C   0  0  0  0  0  0  0  0  0  0  0  0
   34.7030   34.0230   31.3690 C   0  0  0  0  0  0  0  0  0  0  0  0
   34.2200   33.1030   32.1080 C   0  0  0  0  0  0  0  0  0  0  0  0
   32.5990   32.4860   32.3410 C   0  0  0  0  0  0  0  0  0  0  0  0
   38.7440   39.0460   28.2810 C   0  0  0  0  0  0  0  0  0  0  0  0
   33.9240   32.0770   33.1780 C   0  0  0  0  0  0  0  0  0  0  0  0
   37.4830   38.2890   28.2700 N   0  0  0  0  0  0  0  0  0  0  0  0
   38.5410   39.9520   27.1120 C   0  0  0  0  0  0  0  0  0  0  0  0
   37.6720   36.8360   30.0910 C   0  0  0  0  0  0  0  0  0  0  0  0
   37.1030   34.4570   30.8490 C   0  0  0  0  0  0  0  0  0  0  0  0
   39.6870   38.6980   29.0040 O   0  0  0  0  0  0  0  0  0  0  0  0
  1  5  1  0
  2 14  1  0
  6 15  1  0
  7  4  1  0
  8  7  1  0
  8  9  1  0
  8 11  1  0
  9  1  1  0
  9 11  1  0
 10 16  2  0
 11  3  1  0
 12 10  1  0
 12  2  1  0
 13 10  1  0
 14  6  1  0
 15  4  1  0
M  END
$$$$

     RDKit          3D

  9  9  0  0  0  0  0  0  0  0999 V2000
   38.3930   37.1070   24.1070 C   0  0  0  0  0  0  0  0  0  0  0  0
   35.6990   38.4750   26.6580 C   0  0  0  0  0  0  0  0  0  0  0  0
   37.3640   39.7180   25.4330 O   0  0  0  0  0  0  0  0  0  0  0  0
   35.7190   37.5850   27.5660 C   0  0  0  0  0  0  0  0  0  0  0  0
   38.2020   36.6630   25.5820 C   0  0  0  0  0  0  0  0  0  0  0  0
   37.1470   38.7920   26.3300 C   0  0  0  0  0  0  0  0  0  0  0  0
   38.1170   37.7890   26.4850 O   0  0  0  0  0  0  0  0  0  0  0  0
   35.1200   37.2540   28.6720 C   0  0  0  0  0  0  0  0  0  0  0  0
   35.9120   36.2470   27.8550 C   0  0  0  0  0  0  0  0  0  0  0  0
  1  5  1  0
  2  4  1  0
  3  6  2  0
  4  9  1  0
  4  8  1  0
  5  7  1  0
  6  7  1  0
  6  2  1  0
  9  8  1  0
M  END
$$$$

     RDKit          3D

 12 12  0  0  0  0  0  0  0  0999 V2000
   35.1650   35.0130   31.6260 C   0  0  0  0  0  0  0  0  0  0  0  0
   35.2980   36.1330   32.1600 O   0  0  0  0  0  0  0  0  0  0  0  0
   36.6250   38.5420   26.8710 C   0  0  0  0  0  0  0  0  0  0  0  0
   36.2680   39.9160   26.4220 C   0  0  0  0  0  0  0  0  0  0  0  0
   35.9550   36.0380   29.5980 N   0  0  0  0  0  0  0  0  0  0  0  0
   36.2600   36.5920   28.4160 C   0  0  0  0  0  0  0  0  0  0  0  0
   37.6280   37.7500   26.2340 C   0  0  0  0  0  0  0  0  0  0  0  0
   35.8990   37.8980   28.0020 C   0  0  0  0  0  0  0  0  0  0  0  0
   37.6100   36.3170   26.3850 C   0  0  0  0  0  0  0  0  0  0  0  0
   35.7810   34.8300   30.2330 C   0  0  0  0  0  0  0  0  0  0  0  0
   37.0580   35.8420   27.5250 C   0  0  0  0  0  0  0  0  0  0  0  0
   34.4020   33.8630   32.1530 N   0  0  0  0  0  0  0  0  0  0  0  0
  1 12  1  0
  1  2  2  0
  3  8  1  0
  4  3  1  0
  5 10  1  0
  6  5  1  0
  7  9  1  0
  7  3  2  0
  8  6  2  0
  9 11  2  0
 10  1  1  0
 11  6  1  0
M  END
$$$$

     RDKit          3D

 18 19  0  0  0  0  0  0  0  0999 V2000
   39.7670   42.2380   25.9760 C   0  0  0  0  0  0  0  0  0  0  0  0
   40.6820   40.9680   25.9100 O   0  0  0  0  0  0  0  0  0  0  0  0
   37.8390   36.9580   29.0030 N   0  0  0  0  0  0  0  0  0  0  0  0
   36.5340   37.0100   28.6050 C   0  0  0  0  0  0  0  0  0  0  0  0
   36.8930   35.7750   30.2030 C   0  0  0  0  0  0  0  0  0  0  0  0
   40.3010   39.5300   26.0660 C   0  0  0  0  0  0  0  0  0  0  0  0
   38.0990   36.2330   30.0840 N   0  0  0  0  0  0  0  0  0  0  0  0
   38.7950   38.3960   27.3450 N   0  0  0  0  0  0  0  0  0  0  0  0
   41.0810   43.1650   26.5810 C   0  0  0  0  0  0  0  0  0  0  0  0
   41.5090   43.6460   25.3010 O   0  0  0  0  0  0  0  0  0  0  0  0
   39.0360   37.6510   28.4730 C   0  0  0  0  0  0  0  0  0  0  0  0
   39.5570   39.0380   24.7660 C   0  0  0  0  0  0  0  0  0  0  0  0
   36.0820   34.9940   30.8940 C   0  0  0  0  0  0  0  0  0  0  0  0
   39.1300   39.8160   27.2260 C   0  0  0  0  0  0  0  0  0  0  0  0
   38.7610   42.3210   27.0280 C   0  0  0  0  0  0  0  0  0  0  0  0
   38.1580   37.6680   26.2300 C   0  0  0  0  0  0  0  0  0  0  0  0
   39.0390   37.6540   24.9920 C   0  0  0  0  0  0  0  0  0  0  0  0
   35.9060   36.0460   29.8470 C   0  0  0  0  0  0  0  0  0  0  0  0
  1  9  1  0
  1 15  1  0
  2  1  1  0
  3  7  1  0
  4  3  1  0
  4 18  1  0
  5 13  2  0
  6  2  1  0
  6 14  1  0
  7  5  1  0
  8 11  1  0
 10  9  1  0
 11  3  1  0
 12 17  1  0
 12  6  1  0
 14  8  1  0
 16  8  1  0
 17 16  1  0
 18  5  1  0
M  END
$$$$

     RDKit          3D

 13 12  0  0  0  0  0  0  0  0999 V2000
   37.3790   39.6930   24.0780 C   0  0  0  0  0  0  0  0  0  0  0  0
   40.7930   41.3190   24.2750 C   0  0  0  0  0  0  0  0  0  0  0  0
   33.7110   37.8830   23.3340 O   0  0  0  0  0  0  0  0  0  0  0  0
   35.3950   38.5470   24.7920 N   0  0  0  0  0  0  0  0  0  0  0  0
   34.1760   38.0000   24.4630 C   0  0  0  0  0  0  0  0  0  0  0  0
   39.4430   40.9100   24.8570 C   0  0  0  0  0  0  0  0  0  0  0  0
   36.8860   40.9610   23.9190 O   0  0  0  0  0  0  0  0  0  0  0  0
   36.9070   37.1440   23.7190 C   0  0  0  0  0  0  0  0  0  0  0  0
   38.8870   39.7790   24.1240 C   0  0  0  0  0  0  0  0  0  0  0  0
   36.2930   36.1140   23.1970 O   0  0  0  0  0  0  0  0  0  0  0  0
   36.4150   38.5690   23.7130 C   0  0  0  0  0  0  0  0  0  0  0  0
   38.9730   41.3340   26.0630 C   0  0  0  0  0  0  0  0  0  0  0  0
   37.9430   36.9290   24.4780 O   0  0  0  0  0  0  0  0  0  0  0  0
  1  7  1  0
  1  9  1  0
  2  6  1  0
  3  5  2  0
  5  4  1  0
  6 12  2  0
  8 13  1  0
  9  6  1  0
 10  8  2  0
 11  8  1  0
 11  1  1  0
 11  4  1  0
M  END
$$$$

     RDKit          3D

 23 25  0  0  0  0  0  0  0  0999 V2000
   37.1550   36.6840   27.1030 N   0  0  0  0  0  0  0  0  0  0  0  0
   39.9200   40.4070   22.8170 C   0  0  0  0  0  0  0  0  0  0  0  0
   34.8650   34.4370   30.1240 C   0  0  0  0  0  0  0  0  0  0  0  0
   35.2020   35.5880   31.0250 C   0  0  0  0  0  0  0  0  0  0  0  0
   41.0860   40.0210   23.8860 C   0  0  0  0  0  0  0  0  0  0  0  0
   39.3150   38.6240   24.8330 N   0  0  0  0  0  0  0  0  0  0  0  0
   35.1760   35.9310   29.8370 C   0  0  0  0  0  0  0  0  0  0  0  0
   35.4640   36.1640   28.5270 N   0  0  0  0  0  0  0  0  0  0  0  0
   36.1220   37.0760   27.8310 C   0  0  0  0  0  0  0  0  0  0  0  0
   35.0270   36.4580   34.5650 C   0  0  0  0  0  0  0  0  0  0  0  0
   35.4850   36.4870   33.2740 C   0  0  0  0  0  0  0  0  0  0  0  0
   35.3610   38.2460   27.7230 O   0  0  0  0  0  0  0  0  0  0  0  0
   38.3200   38.9420   23.7720 C   0  0  0  0  0  0  0  0  0  0  0  0
   38.9200   37.3620   25.4370 C   0  0  0  0  0  0  0  0  0  0  0  0
   37.6590   37.6710   26.2000 C   0  0  0  0  0  0  0  0  0  0  0  0
   39.0110   39.4770   22.5890 C   0  0  0  0  0  0  0  0  0  0  0  0
   32.5200   33.7290   34.5690 O   0  0  0  0  0  0  0  0  0  0  0  0
   34.0140   34.5280   32.8290 C   0  0  0  0  0  0  0  0  0  0  0  0
   34.9410   35.6330   32.3620 C   0  0  0  0  0  0  0  0  0  0  0  0
   34.0560   35.5380   34.9790 C   0  0  0  0  0  0  0  0  0  0  0  0
   33.5370   34.6320   34.0800 C   0  0  0  0  0  0  0  0  0  0  0  0
   41.2150   40.7560   25.2760 C   0  0  0  0  0  0  0  0  0  0  0  0
   40.6410   38.6240   24.2620 C   0  0  0  0  0  0  0  0  0  0  0  0
  1  9  1  0
  2  5  1  0
  3  4  1  0
  4 19  1  0
  5 23  1  0
  5 22  1  0
  6 14  1  0
  7  8  1  0
  7  3  1  0
  7  4  1  0
  9  8  1  0
 10 20  1  0
 11 10  2  0
 12  9  2  0
 13  6  1  0
 14 15  1  0
 15  1  1  0
 16  2  1  0
 16 13  1  0
 18 21  1  0
 19 18  2  0
 19 11  1  0
 21 17  1  0
 21 20  2  0
 23  6  1  0
M  END
$$$$

     RDKit          3D

  6  8  0  0  0  0  0  0  0  0999 V2000
   34.7250   36.9830   23.3830 C   0  0  0  0  0  0  0  0  0  0  0  0
   33.5830   37.6410   22.7090 N   0  0  0  0  0  0  0  0  0  0  0  0
   36.0290   36.9040   25.3330 N   0  0  0  0  0  0  0  0  0  0  0  0
   33.8620   37.1440   24.6450 S   0  0  0  0  0  0  0  0  0  0  0  0
   35.3130   37.8960   24.3860 C   0  0  0  0  0  0  0  0  0  0  0  0
   36.8180   37.6360   24.3590 C   0  0  0  0  0  0  0  0  0  0  0  0
  1  2  1  0
  1  5  1  0
  1  4  1  0
  4  2  1  0
  5  6  1  0
  5  4  1  0
  5  3  1  0
  6  3  1  0
M  END
$$$$

     RDKit          3D

 10  9  0  0  0  0  0  0  0  0999 V2000
   35.2850   38.0460   21.5110 C   0  0  0  0  0  0  0  0  0  0  0  0
   34.0520   38.2940   22.3310 C   0  0  0  0  0  0  0  0  0  0  0  0
   35.3070   35.6140   21.7660 C   0  0  0  0  0  0  0  0  0  0  0  0
   36.0890   36.9410   22.7280 C   0  0  0  0  0  0  0  0  0  0  0  0
   38.4610   38.1630   23.9490 O   0  0  0  0  0  0  0  0  0  0  0  0
   36.1080   37.6750   23.5080 C   0  0  0  0  0  0  0  0  0  0  0  0
   37.1890   37.9760   24.4430 N   0  0  0  0  0  0  0  0  0  0  0  0
   36.9850   36.1370   23.3540 O   0  0  0  0  0  0  0  0  0  0  0  0
   39.1810   39.0660   24.9150 C   0  0  0  0  0  0  0  0  0  0  0  0
   37.6720   37.4080   25.4360 C   0  0  0  0  0  0  0  0  0  0  0  0
  1  2  1  0
  1  4  1  0
  4  3  1  0
  4  8  1  0
  4  6  1  0
  5  7  1  0
  5  9  1  0
  6  7  1  0
  7 10  1  0
M  END
$$$$

     RDKit          3D

 13 14  0  0  0  0  0  0  0  0999 V2000
   39.8250   39.3250   23.6140 O   0  0  0  0  0  0  0  0  0  0  0  0
   35.9320   37.2760   27.4530 C   0  0  0  0  0  0  0  0  0  0  0  0
   37.1270   33.9520   27.3250 N   0  0  0  0  0  0  0  0  0  0  0  0
   37.2750   36.1210   26.0660 C   0  0  0  0  0  0  0  0  0  0  0  0
   35.9980   39.5610   25.2890 N   0  0  0  0  0  0  0  0  0  0  0  0
   38.4840   39.4660   23.6000 C   0  0  0  0  0  0  0  0  0  0  0  0
   37.8980   40.4270   23.0340 O   0  0  0  0  0  0  0  0  0  0  0  0
   36.7080   37.3510   26.2980 C   0  0  0  0  0  0  0  0  0  0  0  0
   36.0330   35.9960   27.9840 C   0  0  0  0  0  0  0  0  0  0  0  0
   37.5960   38.1750   24.0810 C   0  0  0  0  0  0  0  0  0  0  0  0
   38.0860   36.3890   24.6130 S   0  0  0  0  0  0  0  0  0  0  0  0
   36.7340   38.4620   25.2590 C   0  0  0  0  0  0  0  0  0  0  0  0
   36.8380   35.3280   27.1130 N   0  0  0  0  0  0  0  0  0  0  0  0
  2  9  2  0
  4  8  2  0
  4 13  1  0
  6  1  1  0
  7  6  2  0
  8  2  1  0
 10  6  1  0
 10 11  1  0
 10 12  1  0
 11  4  1  0
 12  5  2  0
 12  8  1  0
 13  3  1  0
 13  9  1  0
M  END
$$$$

     RDKit          3D

  9  8  0  0  0  0  0  0  0  0999 V2000
   35.8280   36.2000   26.0440 O   0  0  0  0  0  0  0  0  0  0  0  0
   35.7930   35.1530   22.7700 C   0  0  0  0  0  0  0  0  0  0  0  0
   36.9750   37.3530   24.3170 C   0  0  0  0  0  0  0  0  0  0  0  0
   34.7260   37.2790   22.8210 O   0  0  0  0  0  0  0  0  0  0  0  0
   35.0870   36.1050   23.6150 C   0  0  0  0  0  0  0  0  0  0  0  0
   34.1480   38.3540   23.4020 O   0  0  0  0  0  0  0  0  0  0  0  0
   37.5100   38.0670   25.3770 O   0  0  0  0  0  0  0  0  0  0  0  0
   35.6800   36.7580   24.8140 C   0  0  0  0  0  0  0  0  0  0  0  0
   35.4970   35.1120   21.4240 O   0  0  0  0  0  0  0  0  0  0  0  0
  3  8  1  0
  3  7  1  0
  4  6  1  0
  4  5  1  0
  5  2  1  0
  5  8  1  0
  8  1  1  0
  9  2  1  0
M  END
$$$$

     RDKit          3D

 10 11  0  0  0  0  0  0  0  0999 V2000
   35.2630   36.5780   25.5000 C   0  0  0  0  0  0  0  0  0  0  0  0
   37.7580   36.6120   24.2500 C   0  0  0  0  0  0  0  0  0  0  0  0
   34.0730   36.0860   25.0720 C   0  0  0  0  0  0  0  0  0  0  0  0
   37.3910   37.1840   26.8200 C   0  0  0  0  0  0  0  0  0  0  0  0
   34.2240   35.5550   23.6430 C   0  0  0  0  0  0  0  0  0  0  0  0
   35.7000   35.5810   23.3590 C   0  0  0  0  0  0  0  0  0  0  0  0
   36.2250   36.8310   24.2280 C   0  0  0  0  0  0  0  0  0  0  0  0
   33.0880   36.7350   25.5120 O   0  0  0  0  0  0  0  0  0  0  0  0
   35.9590   36.4920   26.7550 C   0  0  0  0  0  0  0  0  0  0  0  0
   38.5420   36.3720   25.9750 S   0  0  0  0  0  0  0  0  0  0  0  0
  1  9  1  0
  2 10  1  0
  3  1  1  0
  3  8  2  0
  5  3  1  0
  6  5  1  0
  7  6  1  0
  7  2  1  0
  7  1  1  0
  9  4  1  0
 10  4  1  0
M  END
$$$$

     RDKit          3D

 13 13  0  0  0  0  0  0  0  0999 V2000
   35.8630   35.1500   28.4440 C   0  0  0  0  0  0  0  0  0  0  0  0
   36.3240   38.1280   27.2850 O   0  0  0  0  0  0  0  0  0  0  0  0
   33.8440   38.0090   25.9830 O   0  0  0  0  0  0  0  0  0  0  0  0
   33.9420   34.6040   30.0630 O   0  0  0  0  0  0  0  0  0  0  0  0
   35.1690   37.5350   27.9890 C   0  0  0  0  0  0  0  0  0  0  0  0
   37.3760   35.2390   27.6870 Cl  0  0  0  0  0  0  0  0  0  0  0  0
   35.4960   32.7290   28.8750 C   0  0  0  0  0  0  0  0  0  0  0  0
   35.3620   34.1030   29.5730 C   0  0  0  0  0  0  0  0  0  0  0  0
   34.6520   33.7930   30.8850 C   0  0  0  0  0  0  0  0  0  0  0  0
   35.3600   31.5870   29.1840 O   0  0  0  0  0  0  0  0  0  0  0  0
   33.8260   37.9620   27.4180 C   0  0  0  0  0  0  0  0  0  0  0  0
   35.0210   35.9620   27.9540 C   0  0  0  0  0  0  0  0  0  0  0  0
   34.0200   33.7880   32.2920 C   0  0  0  0  0  0  0  0  0  0  0  0
  1  6  1  0
  1  8  1  0
  3 11  1  0
  4  9  1  0
  5  2  1  0
  7 10  2  0
  8  7  1  0
  8  4  1  0
  8  9  1  0
  9 13  1  0
 11  5  1  0
 12  5  1  0
 12  1  1  0
M  END
$$$$

     RDKit          3D

 10 10  0  0  0  0  0  0  0  0999 V2000
   35.5280   37.6890   28.4740 C   0  0  0  0  0  0  0  0  0  0  0  0
   35.8160   35.6890   27.4960 C   0  0  0  0  0  0  0  0  0  0  0  0
   37.3980   39.8570   27.4840 O   0  0  0  0  0  0  0  0  0  0  0  0
   34.2540   36.0880   29.9300 C   0  0  0  0  0  0  0  0  0  0  0  0
   35.3550   38.9430   28.1840 N   0  0  0  0  0  0  0  0  0  0  0  0
   34.6950   34.8810   29.5580 C   0  0  0  0  0  0  0  0  0  0  0  0
   34.7190   37.1850   29.4600 N   0  0  0  0  0  0  0  0  0  0  0  0
   36.4490   36.8970   27.9210 O   0  0  0  0  0  0  0  0  0  0  0  0
   36.0040   40.0450   27.4820 C   0  0  0  0  0  0  0  0  0  0  0  0
   35.6630   34.7190   28.5400 N   0  0  0  0  0  0  0  0  0  0  0  0
  1  7  2  0
  2  8  1  0
  2 10  1  0
  5  1  1  0
  6  4  2  0
  7  4  1  0
  8  1  1  0
  9  3  1  0
  9  5  1  0
 10  6  1  0
M  END
$$$$

     RDKit          3D

 15 17  0  0  0  0  0  0  0  0999 V2000
   37.0370   36.5530   31.1480 C   0  0  0  0  0  0  0  0  0  0  0  0
   40.7630   43.3840   27.4900 C   0  0  0  0  0  0  0  0  0  0  0  0
   40.5300   39.4620   27.6170 C   0  0  0  0  0  0  0  0  0  0  0  0
   36.1020   36.1970   31.9630 N   0  0  0  0  0  0  0  0  0  0  0  0
   39.2360   38.6960   29.5820 C   0  0  0  0  0  0  0  0  0  0  0  0
   39.0370   37.3340   28.1020 N   0  0  0  0  0  0  0  0  0  0  0  0
   38.4990   37.7590   30.0680 C   0  0  0  0  0  0  0  0  0  0  0  0
   37.9150   37.5030   33.7000 Br  0  0  0  0  0  0  0  0  0  0  0  0
   40.8160   40.9110   27.9300 C   0  0  0  0  0  0  0  0  0  0  0  0
   38.2950   36.9680   29.1220 C   0  0  0  0  0  0  0  0  0  0  0  0
   39.6650   38.5210   28.4080 C   0  0  0  0  0  0  0  0  0  0  0  0
   40.4450   42.0240   26.9290 C   0  0  0  0  0  0  0  0  0  0  0  0
   38.0710   37.4720   31.4900 C   0  0  0  0  0  0  0  0  0  0  0  0
   37.2160   35.8370   29.6750 S   0  0  0  0  0  0  0  0  0  0  0  0
   41.7490   42.7810   26.7240 C   0  0  0  0  0  0  0  0  0  0  0  0
  1 13  1  0
  1  4  2  0
  3  9  1  0
  3 11  1  0
  6 11  1  0
  6 10  2  0
  7  5  1  0
  7 13  1  0
 10 14  1  0
 10  7  1  0
 11  5  2  0
 12  2  1  0
 12  9  1  0
 13  8  1  0
 14  1  1  0
 15 12  1  0
 15  2  1  0
M  END
$$$$

     RDKit          3D

 21 22  0  0  0  0  0  0  0  0999 V2000
   37.3160   37.4900   25.8080 C   0  0  0  0  0  0  0  0  0  0  0  0
   35.0550   34.3560   29.4940 C   0  0  0  0  0  0  0  0  0  0  0  0
   38.1730   38.6990   29.3280 C   0  0  0  0  0  0  0  0  0  0  0  0
   38.0240   39.7970   27.1770 N   0  0  0  0  0  0  0  0  0  0  0  0
   37.4110   37.4840   27.2740 C   0  0  0  0  0  0  0  0  0  0  0  0
   37.8200   38.6720   27.8930 C   0  0  0  0  0  0  0  0  0  0  0  0
   33.7120   32.1140   31.4280 O   0  0  0  0  0  0  0  0  0  0  0  0
   34.5300   34.3560   31.8120 C   0  0  0  0  0  0  0  0  0  0  0  0
   39.9410   37.9880   23.9110 C   0  0  0  0  0  0  0  0  0  0  0  0
   38.5030   38.4730   23.8020 C   0  0  0  0  0  0  0  0  0  0  0  0
   37.9620   37.3440   30.0420 C   0  0  0  0  0  0  0  0  0  0  0  0
   34.1700   34.1580   30.5860 N   0  0  0  0  0  0  0  0  0  0  0  0
   38.4900   40.9420   25.2560 O   0  0  0  0  0  0  0  0  0  0  0  0
   40.8850   38.6100   25.0890 C   0  0  0  0  0  0  0  0  0  0  0  0
   35.4010   35.3100   32.2160 C   0  0  0  0  0  0  0  0  0  0  0  0
   33.2920   33.1590   30.7140 C   0  0  0  0  0  0  0  0  0  0  0  0
   37.8190   38.6970   25.1220 C   0  0  0  0  0  0  0  0  0  0  0  0
   36.0030   36.2750   31.3550 C   0  0  0  0  0  0  0  0  0  0  0  0
   38.0810   39.8280   25.8420 C   0  0  0  0  0  0  0  0  0  0  0  0
   38.5070   38.5170   30.7030 O   0  0  0  0  0  0  0  0  0  0  0  0
   36.7590   36.6940   30.8190 C   0  0  0  0  0  0  0  0  0  0  0  0
  1  5  2  0
  2 12  1  0
  3  6  1  0
  3 11  1  0
  3 20  1  0
  4  6  2  0
  5  6  1  0
  8 15  2  3
  9 14  1  0
 10  9  1  0
 11 20  1  0
 11 21  1  0
 12 16  1  0
 12  8  1  0
 13 19  2  0
 16  7  1  0
 17 10  1  0
 17  1  1  0
 17 19  1  0
 18 15  1  0
 19  4  1  0
 21 18  3  0
M  END
$$$$

     RDKit          3D

 18 19  0  0  0  0  0  0  0  0999 V2000
   39.6060   40.0200   27.3990 N   0  0  0  0  0  0  0  0  0  0  0  0
   37.2790   33.4010   30.4610 C   0  0  0  0  0  0  0  0  0  0  0  0
   37.4810   39.0310   26.4700 C   0  0  0  0  0  0  0  0  0  0  0  0
   38.5500   39.0310   27.5650 C   0  0  0  0  0  0  0  0  0  0  0  0
   35.8810   33.6860   32.2830 N   0  0  0  0  0  0  0  0  0  0  0  0
   36.2660   34.4320   30.2540 N   0  0  0  0  0  0  0  0  0  0  0  0
   36.0010   33.9590   33.7200 N   0  0  0  0  0  0  0  0  0  0  0  0
   40.6470   41.9130   26.1980 C   0  0  0  0  0  0  0  0  0  0  0  0
   38.8020   37.8190   28.4590 C   0  0  0  0  0  0  0  0  0  0  0  0
   36.3810   32.5630   31.4250 C   0  0  0  0  0  0  0  0  0  0  0  0
   38.4860   34.4260   30.3560 C   0  0  0  0  0  0  0  0  0  0  0  0
   38.0830   41.5420   26.2500 C   0  0  0  0  0  0  0  0  0  0  0  0
   35.3360   34.6510   31.3680 C   0  0  0  0  0  0  0  0  0  0  0  0
   39.4170   38.2430   29.6470 O   0  0  0  0  0  0  0  0  0  0  0  0
   38.4940   35.7070   29.6420 N   0  0  0  0  0  0  0  0  0  0  0  0
   37.1670   40.3850   25.8680 C   0  0  0  0  0  0  0  0  0  0  0  0
   39.4720   41.0280   26.4560 C   0  0  0  0  0  0  0  0  0  0  0  0
   37.9740   36.5780   28.7090 C   0  0  0  0  0  0  0  0  0  0  0  0
  1  4  2  0
  2 11  1  0
  2 10  1  0
  3  4  1  0
  4  9  1  0
  5  7  1  0
  6  2  1  0
  6 13  1  0
  9 18  1  0
  9 14  1  0
 10  5  1  0
 12 17  1  0
 13  5  1  0
 15 11  1  0
 16 12  1  0
 16  3  2  0
 17  8  1  0
 17  1  1  0
 18 15  2  3
M  END
$$$$

     RDKit          3D

  7  6  0  0  0  0  0  0  0  0999 V2000
   36.8820   39.5430   22.0120 N   0  0  0  0  0  0  0  0  0  0  0  0
   38.5590   38.3100   23.1420 O   0  0  0  0  0  0  0  0  0  0  0  0
   35.7100   41.1650   23.1700 O   0  0  0  0  0  0  0  0  0  0  0  0
   38.5340   39.0330   24.1270 C   0  0  0  0  0  0  0  0  0  0  0  0
   37.3950   40.0280   24.3630 C   0  0  0  0  0  0  0  0  0  0  0  0
   36.6140   40.2660   23.3020 C   0  0  0  0  0  0  0  0  0  0  0  0
   39.3850   38.8120   25.3750 C   0  0  0  0  0  0  0  0  0  0  0  0
  1  6  1  0
  2  4  2  0
  3  6  2  0
  4  5  1  0
  4  7  1  0
  6  5  1  0
M  END
$$$$
