
     RDKit          3D

  8  8  0  0  0  0  0  0  0  0999 V2000
   38.1250   40.0440   30.2420 C   0  0  0  0  0  0  0  0  0  0  0  0
   34.1040   37.0400   32.0570 Cl  0  0  0  0  0  0  0  0  0  0  0  0
   36.3390   36.2960   31.5580 C   0  0  0  0  0  0  0  0  0  0  0  0
   36.0650   38.6330   30.9380 C   0  0  0  0  0  0  0  0  0  0  0  0
   38.1360   37.5970   30.7000 C   0  0  0  0  0  0  0  0  0  0  0  0
   37.4010   38.7560   30.6540 C   0  0  0  0  0  0  0  0  0  0  0  0
   35.6260   37.3510   31.4630 C   0  0  0  0  0  0  0  0  0  0  0  0
   37.5130   36.5030   31.1870 C   0  0  0  0  0  0  0  0  0  0  0  0
  1  6  1  0
  4  7  2  0
  5  8  1  0
  6  5  2  0
  6  4  1  0
  7  3  1  0
  7  2  1  0
  8  3  2  0
M  END
$$$$

     RDKit          3D

  4  3  0  0  0  0  0  0  0  0999 V2000
   40.4210   39.3950   27.9630 C   0  0  0  0  0  0  0  0  0  0  0  0
   39.8350   41.4960   29.2280 O   0  0  0  0  0  0  0  0  0  0  0  0
   40.0700   40.4180   28.9800 N   0  0  0  0  0  0  0  0  0  0  0  0
   40.8750   40.0820   29.8570 O   0  0  0  0  0  0  0  0  0  0  0  0
  1  3  1  0
  3  2  2  0
  3  4  2  0
M  END
$$$$

     RDKit          3D

  9  9  0  0  0  0  0  0  0  0999 V2000
   37.8190   38.3100   30.2360 C   0  0  0  0  0  0  0  0  0  0  0  0
   38.5930   35.5870   30.5490 C   0  0  0  0  0  0  0  0  0  0  0  0
   37.3530   37.6130   31.3990 C   0  0  0  0  0  0  0  0  0  0  0  0
   36.4000   38.1000   32.0990 O   0  0  0  0  0  0  0  0  0  0  0  0
   39.0010   36.3380   29.5160 C   0  0  0  0  0  0  0  0  0  0  0  0
   37.7450   36.2260   31.6600 C   0  0  0  0  0  0  0  0  0  0  0  0
   37.1610   39.5350   29.6700 C   0  0  0  0  0  0  0  0  0  0  0  0
   38.9670   37.7710   29.5450 C   0  0  0  0  0  0  0  0  0  0  0  0
   37.9050   40.7730   29.8640 N   0  0  0  0  0  0  0  0  0  0  0  0
  1  7  1  0
  1  3  1  0
  2  6  1  0
  3  6  1  0
  3  4  2  0
  5  8  1  0
  5  2  1  0
  7  9  1  0
  8  1  1  0
M  END
$$$$

     RDKit          3D

 21 22  0  0  0  0  0  0  0  0999 V2000
   40.5220   43.6620   30.8970 S   0  0  0  0  0  0  0  0  0  0  0  0
   37.7960   37.9310   29.6660 C   0  0  0  0  0  0  0  0  0  0  0  0
   38.3650   37.2520   30.5240 O   0  0  0  0  0  0  0  0  0  0  0  0
   34.5820   39.1090   30.3420 O   0  0  0  0  0  0  0  0  0  0  0  0
   40.0030   41.1920   30.0850 C   0  0  0  0  0  0  0  0  0  0  0  0
   38.6350   39.8910   31.4970 O   0  0  0  0  0  0  0  0  0  0  0  0
   39.2270   39.9430   30.2040 C   0  0  0  0  0  0  0  0  0  0  0  0
   35.8650   33.8700   34.4090 N   0  0  0  0  0  0  0  0  0  0  0  0
   37.4340   41.0650   28.6660 C   0  0  0  0  0  0  0  0  0  0  0  0
   34.6140   37.9730   30.7580 C   0  0  0  0  0  0  0  0  0  0  0  0
   38.1630   39.5040   28.9600 S   0  0  0  0  0  0  0  0  0  0  0  0
   35.7400   36.2100   32.0150 C   0  0  0  0  0  0  0  0  0  0  0  0
   39.7570   42.1150   31.2770 C   0  0  0  0  0  0  0  0  0  0  0  0
   35.7830   37.2960   31.2690 C   0  0  0  0  0  0  0  0  0  0  0  0
   35.4490   33.9230   33.0980 C   0  0  0  0  0  0  0  0  0  0  0  0
   33.3040   37.1950   30.7870 C   0  0  0  0  0  0  0  0  0  0  0  0
   38.7970   39.0490   27.8210 O   0  0  0  0  0  0  0  0  0  0  0  0
   36.9180   33.9000   33.3750 C   0  0  0  0  0  0  0  0  0  0  0  0
   37.1690   37.8840   31.0360 C   0  0  0  0  0  0  0  0  0  0  0  0
   40.4490   42.2980   32.3620 C   0  0  0  0  0  0  0  0  0  0  0  0
   34.9390   35.1410   32.4080 C   0  0  0  0  0  0  0  0  0  0  0  0
  1 13  1  0
  2 11  1  0
  2  3  1  0
  2 19  1  0
  3 19  1  0
  4 10  2  0
  5  7  1  0
  5 13  1  0
  7  6  1  0
 10 16  1  0
 10 14  1  0
 11  9  1  0
 11  7  1  0
 12 21  2  3
 13 20  1  0
 14 12  1  0
 15 21  1  0
 15 18  1  0
 15  8  1  0
 17 11  1  0
 18  8  1  0
 19 14  1  0
M  END
$$$$

     RDKit          3D

 21 20  0  0  0  0  0  0  0  0999 V2000
   37.2700   37.6830   31.2860 C   0  0  0  0  0  0  0  0  0  0  0  0
   37.5600   42.9280   28.0240 O   0  0  0  0  0  0  0  0  0  0  0  0
   36.3340   35.7140   32.6040 O   0  0  0  0  0  0  0  0  0  0  0  0
   38.8690   42.6750   27.7160 C   0  0  0  0  0  0  0  0  0  0  0  0
   36.6330   42.7790   27.2180 C   0  0  0  0  0  0  0  0  0  0  0  0
   39.7770   43.6450   28.3400 C   0  0  0  0  0  0  0  0  0  0  0  0
   39.2250   41.7100   27.0530 O   0  0  0  0  0  0  0  0  0  0  0  0
   35.8270   37.5980   31.3210 C   0  0  0  0  0  0  0  0  0  0  0  0
   32.1600   32.6890   34.4820 O   0  0  0  0  0  0  0  0  0  0  0  0
   34.2140   32.7370   34.0820 O   0  0  0  0  0  0  0  0  0  0  0  0
   35.5420   41.8320   27.6510 C   0  0  0  0  0  0  0  0  0  0  0  0
   34.3580   36.5210   32.9510 C   0  0  0  0  0  0  0  0  0  0  0  0
   36.5960   43.1550   25.8660 O   0  0  0  0  0  0  0  0  0  0  0  0
   37.9680   38.1840   30.0550 C   0  0  0  0  0  0  0  0  0  0  0  0
   36.3330   40.8530   28.4830 C   0  0  0  0  0  0  0  0  0  0  0  0
   35.8820   40.2280   30.1550 S   0  0  0  0  0  0  0  0  0  0  0  0
   33.6340   35.2130   32.7900 C   0  0  0  0  0  0  0  0  0  0  0  0
   35.2380   38.6690   30.7250 C   0  0  0  0  0  0  0  0  0  0  0  0
   35.5140   36.5640   32.2830 C   0  0  0  0  0  0  0  0  0  0  0  0
   33.2690   33.2470   34.1620 C   0  0  0  0  0  0  0  0  0  0  0  0
   33.1590   34.8510   33.7240 C   0  0  0  0  0  0  0  0  0  0  0  0
  1  8  1  0
  4  2  1  0
  4  6  1  0
  5 11  1  0
  5  2  1  0
  7  4  2  0
  8 18  1  0
  8 19  1  0
 10 20  2  0
 11 15  1  0
 13  5  2  0
 14  1  1  0
 15 16  1  0
 16 18  1  0
 17 12  1  0
 17 21  1  0
 19  3  2  0
 19 12  1  0
 20  9  1  0
 21 20  1  0
M  END
$$$$

     RDKit          3D

 17 18  0  0  0  0  0  0  0  0999 V2000
   38.6360   34.4400   36.3240 O   0  0  0  0  0  0  0  0  0  0  0  0
   39.3560   41.5760   28.0050 C   0  0  0  0  0  0  0  0  0  0  0  0
   37.3880   36.3780   32.4540 C   0  0  0  0  0  0  0  0  0  0  0  0
   38.3630   38.4270   32.3600 C   0  0  0  0  0  0  0  0  0  0  0  0
   38.0370   41.6890   27.5460 O   0  0  0  0  0  0  0  0  0  0  0  0
   37.4610   33.9730   34.5710 N   0  0  0  0  0  0  0  0  0  0  0  0
   39.6660   40.3100   28.7850 C   0  0  0  0  0  0  0  0  0  0  0  0
   38.9350   40.3330   30.0890 C   0  0  0  0  0  0  0  0  0  0  0  0
   38.9330   38.9420   30.2060 O   0  0  0  0  0  0  0  0  0  0  0  0
   38.0690   36.7590   33.6890 C   0  0  0  0  0  0  0  0  0  0  0  0
   37.5040   37.3820   31.5330 C   0  0  0  0  0  0  0  0  0  0  0  0
   40.3670   41.5030   26.8410 C   0  0  0  0  0  0  0  0  0  0  0  0
   38.4340   36.0800   34.7670 N   0  0  0  0  0  0  0  0  0  0  0  0
   38.3710   38.2990   31.2220 C   0  0  0  0  0  0  0  0  0  0  0  0
   38.6090   38.0540   33.5450 C   0  0  0  0  0  0  0  0  0  0  0  0
   38.2940   34.7560   35.1710 C   0  0  0  0  0  0  0  0  0  0  0  0
   36.4590   33.4850   35.1720 O   0  0  0  0  0  0  0  0  0  0  0  0
  2 12  1  0
  2  7  1  0
  3 10  1  0
  4 15  1  0
  5  2  1  0
  6 16  1  0
  6 17  1  0
  7  8  1  0
  8  9  1  0
 10 13  1  0
 11  4  1  0
 11  3  1  0
 13 16  1  0
 14  9  1  0
 14 11  1  0
 14  4  1  0
 15 10  2  0
 16  1  2  0
M  END
$$$$

     RDKit          3D

  2  1  0  0  0  0  0  0  0  0999 V2000
   45.1660   17.5130   37.8290 C   0  0  0  0  0  0  0  0  0  0  0  0
   44.1560   18.3880   38.1860 C   0  0  0  0  0  0  0  0  0  0  0  0
  1  2  1  0
M  END
$$$$

     RDKit          3D

 11 10  0  0  0  0  0  0  0  0999 V2000
   39.0500   42.6030   29.8670 N   0  0  0  0  0  0  0  0  0  0  0  0
   37.0100   40.6320   30.1240 O   0  0  0  0  0  0  0  0  0  0  0  0
   37.6700   44.5040   29.7880 O   0  0  0  0  0  0  0  0  0  0  0  0
   39.7080   38.6600   29.2320 C   0  0  0  0  0  0  0  0  0  0  0  0
   38.0080   38.0100   30.9140 C   0  0  0  0  0  0  0  0  0  0  0  0
   39.1640   40.3000   31.0020 C   0  0  0  0  0  0  0  0  0  0  0  0
   38.4940   43.7710   29.1120 C   0  0  0  0  0  0  0  0  0  0  0  0
   37.4740   42.1160   31.8040 O   0  0  0  0  0  0  0  0  0  0  0  0
   38.9160   39.1120   30.2910 C   0  0  0  0  0  0  0  0  0  0  0  0
   39.0340   44.1770   27.7150 C   0  0  0  0  0  0  0  0  0  0  0  0
   37.9920   41.5230   30.5470 S   0  0  0  0  0  0  0  0  0  0  0  0
  1 11  1  0
  2 11  2  0
  4  9  1  0
  7  3  2  0
  7  1  1  0
  9  5  1  0
  9  6  1  0
 10  7  1  0
 11  6  1  0
 11  8  2  0
M  END
$$$$

     RDKit          3D

 21 22  0  0  0  0  0  0  0  0999 V2000
   37.6860   34.1090   33.1450 C   0  0  0  0  0  0  0  0  0  0  0  0
   37.8240   43.1910   25.9100 O   0  0  0  0  0  0  0  0  0  0  0  0
   37.5760   43.1290   27.1190 C   0  0  0  0  0  0  0  0  0  0  0  0
   36.4600   35.0700   33.1220 C   0  0  0  0  0  0  0  0  0  0  0  0
   40.3910   40.9170   28.4990 C   0  0  0  0  0  0  0  0  0  0  0  0
   35.7790   39.4440   29.7740 C   0  0  0  0  0  0  0  0  0  0  0  0
   36.4430   38.1070   30.0870 C   0  0  0  0  0  0  0  0  0  0  0  0
   39.2940   41.0160   27.4600 C   0  0  0  0  0  0  0  0  0  0  0  0
   36.8980   36.0420   31.9780 C   0  0  0  0  0  0  0  0  0  0  0  0
   35.4550   33.9720   33.6560 O   0  0  0  0  0  0  0  0  0  0  0  0
   35.3790   37.1630   30.4820 C   0  0  0  0  0  0  0  0  0  0  0  0
   37.9830   40.7980   27.7980 C   0  0  0  0  0  0  0  0  0  0  0  0
   35.6970   36.0970   31.2210 N   0  0  0  0  0  0  0  0  0  0  0  0
   35.0540   35.0800   33.3190 C   0  0  0  0  0  0  0  0  0  0  0  0
   34.7650   41.2380   27.9090 C   0  0  0  0  0  0  0  0  0  0  0  0
   36.0110   41.7150   28.5700 C   0  0  0  0  0  0  0  0  0  0  0  0
   37.9290   40.4170   29.2700 C   0  0  0  0  0  0  0  0  0  0  0  0
   35.2960   39.4920   30.9950 O   0  0  0  0  0  0  0  0  0  0  0  0
   36.5700   40.7340   29.6190 C   0  0  0  0  0  0  0  0  0  0  0  0
   37.0260   41.8760   27.5310 N   0  0  0  0  0  0  0  0  0  0  0  0
   37.8010   44.0910   27.9090 O   0  0  0  0  0  0  0  0  0  0  0  0
  2  3  2  0
  3 20  1  0
  3 21  1  0
  4  1  1  0
  4 14  1  0
  4 10  1  0
  6  7  1  0
  6 18  1  0
  7 11  1  0
  8  5  1  0
  9  4  1  0
 11 13  1  0
 12  8  1  0
 12 17  1  0
 13  9  1  0
 14 10  1  0
 16 15  1  0
 16 19  1  0
 17 19  1  0
 19  6  1  0
 20 12  1  0
 20 16  1  0
M  END
$$$$

     RDKit          3D

  9  8  0  0  0  0  0  0  0  0999 V2000
   38.9440   39.6100   29.6470 C   0  0  0  0  0  0  0  0  0  0  0  0
   36.7800   39.1580   30.4580 C   0  0  0  0  0  0  0  0  0  0  0  0
   39.5430   39.6810   30.7020 O   0  0  0  0  0  0  0  0  0  0  0  0
   34.7400   36.5720   31.8150 O   0  0  0  0  0  0  0  0  0  0  0  0
   37.4530   39.6890   29.6440 C   0  0  0  0  0  0  0  0  0  0  0  0
   39.4730   39.3410   28.5520 O   0  0  0  0  0  0  0  0  0  0  0  0
   35.7790   37.3060   31.5660 C   0  0  0  0  0  0  0  0  0  0  0  0
   36.8130   36.9130   32.2520 O   0  0  0  0  0  0  0  0  0  0  0  0
   35.8170   38.3930   30.6670 C   0  0  0  0  0  0  0  0  0  0  0  0
  1  3  1  0
  2  9  1  0
  5  1  1  0
  5  2  1  0
  6  1  2  0
  7  4  2  0
  7  8  1  0
  9  7  1  0
M  END
$$$$

     RDKit          3D

 20 21  0  0  0  0  0  0  0  0999 V2000
   36.2400   39.7550   30.3690 C   0  0  0  0  0  0  0  0  0  0  0  0
   35.9530   34.7200   32.7410 N   0  0  0  0  0  0  0  0  0  0  0  0
   38.3940   37.7870   29.8040 C   0  0  0  0  0  0  0  0  0  0  0  0
   35.5700   43.8690   28.0430 C   0  0  0  0  0  0  0  0  0  0  0  0
   34.7930   37.8010   31.0020 C   0  0  0  0  0  0  0  0  0  0  0  0
   37.3710   41.2790   28.8110 N   0  0  0  0  0  0  0  0  0  0  0  0
   36.1070   38.3280   30.6400 C   0  0  0  0  0  0  0  0  0  0  0  0
   38.6230   39.2460   29.0810 C   0  0  0  0  0  0  0  0  0  0  0  0
   37.8540   33.3050   33.0810 C   0  0  0  0  0  0  0  0  0  0  0  0
   36.7940   42.2060   28.9630 C   0  0  0  0  0  0  0  0  0  0  0  0
   37.9000   43.7610   28.9870 O   0  0  0  0  0  0  0  0  0  0  0  0
   37.7880   44.4270   27.0390 O   0  0  0  0  0  0  0  0  0  0  0  0
   37.1710   37.4760   30.6400 C   0  0  0  0  0  0  0  0  0  0  0  0
   37.0350   43.4480   28.0090 C   0  0  0  0  0  0  0  0  0  0  0  0
   37.0880   36.3230   31.3740 C   0  0  0  0  0  0  0  0  0  0  0  0
   36.6160   33.5280   32.2370 C   0  0  0  0  0  0  0  0  0  0  0  0
   40.0670   40.0170   28.7920 O   0  0  0  0  0  0  0  0  0  0  0  0
   34.7090   36.6200   31.7030 C   0  0  0  0  0  0  0  0  0  0  0  0
   37.6460   40.1700   29.8350 C   0  0  0  0  0  0  0  0  0  0  0  0
   35.8980   35.8750   31.9390 C   0  0  0  0  0  0  0  0  0  0  0  0
  1  7  1  0
  3 13  1  0
  5 18  1  0
  6 10  1  0
  7 13  1  0
  7  5  2  0
  8 17  1  0
  8  3  1  0
  8 19  1  0
 12 14  1  0
 13 15  2  0
 14  4  1  0
 14 10  1  0
 14 11  1  0
 15 20  1  0
 16  2  1  0
 16  9  1  0
 18 20  2  0
 19  6  1  0
 19  1  1  0
 20  2  1  0
M  END
$$$$

     RDKit          3D

 23 24  0  0  0  0  0  0  0  0999 V2000
   38.6190   40.8620   28.6040 C   0  0  0  0  0  0  0  0  0  0  0  0
   38.2290   37.4280   30.7350 C   0  0  0  0  0  0  0  0  0  0  0  0
   37.6780   36.4780   31.3400 C   0  0  0  0  0  0  0  0  0  0  0  0
   34.0820   31.9090   37.9640 C   0  0  0  0  0  0  0  0  0  0  0  0
   35.0850   33.1600   32.8410 C   0  0  0  0  0  0  0  0  0  0  0  0
   37.6830   38.5860   29.9350 C   0  0  0  0  0  0  0  0  0  0  0  0
   34.2430   31.1920   36.6160 C   0  0  0  0  0  0  0  0  0  0  0  0
   38.5570   39.7160   29.5970 C   0  0  0  0  0  0  0  0  0  0  0  0
   36.4270   39.0740   30.5190 O   0  0  0  0  0  0  0  0  0  0  0  0
   34.2580   32.2190   35.5260 C   0  0  0  0  0  0  0  0  0  0  0  0
   37.8060   42.0840   28.8540 C   0  0  0  0  0  0  0  0  0  0  0  0
   39.4260   40.6380   27.6420 N   0  0  0  0  0  0  0  0  0  0  0  0
   35.0930   30.0790   36.7060 O   0  0  0  0  0  0  0  0  0  0  0  0
   34.1070   30.3220   34.0290 O   0  0  0  0  0  0  0  0  0  0  0  0
   37.1010   33.8400   32.1450 S   0  0  0  0  0  0  0  0  0  0  0  0
   34.8350   34.3790   31.9400 C   0  0  0  0  0  0  0  0  0  0  0  0
   34.3520   31.5200   34.1490 C   0  0  0  0  0  0  0  0  0  0  0  0
   38.9680   38.6140   29.0170 O   0  0  0  0  0  0  0  0  0  0  0  0
   37.2490   42.7750   27.9920 O   0  0  0  0  0  0  0  0  0  0  0  0
   37.6510   42.3780   30.0570 O   0  0  0  0  0  0  0  0  0  0  0  0
   34.2530   32.3650   33.0440 N   0  0  0  0  0  0  0  0  0  0  0  0
   36.0050   35.0120   31.8160 C   0  0  0  0  0  0  0  0  0  0  0  0
   36.1750   36.3670   31.5950 C   0  0  0  0  0  0  0  0  0  0  0  0
  1 11  1  0
  2  3  2  3
  3 23  1  0
  5 21  1  0
  6  9  1  0
  6  2  1  0
  7 13  1  0
  7  4  1  0
  8  1  1  0
  8  6  1  0
 10  7  1  0
 11 20  1  0
 12  1  2  0
 14 17  2  0
 15  5  1  0
 16  5  1  0
 17 10  1  0
 18  8  1  0
 18  6  1  0
 19 11  2  0
 21 17  1  0
 22 23  1  0
 22 16  1  0
 22 15  1  0
M  END
$$$$

     RDKit          3D

 23 22  0  0  0  0  0  0  0  0999 V2000
   37.9730   37.1310   33.0810 N   0  0  0  0  0  0  0  0  0  0  0  0
   37.6980   44.4740   28.3150 C   0  0  0  0  0  0  0  0  0  0  0  0
   38.8420   41.7890   26.4240 C   0  0  0  0  0  0  0  0  0  0  0  0
   37.8910   34.1080   36.7620 C   0  0  0  0  0  0  0  0  0  0  0  0
   38.3680   41.8620   27.6570 N   0  0  0  0  0  0  0  0  0  0  0  0
   37.3220   35.9060   33.2370 C   0  0  0  0  0  0  0  0  0  0  0  0
   38.2430   31.0980   33.1420 C   0  0  0  0  0  0  0  0  0  0  0  0
   37.6630   38.0620   32.0550 C   0  0  0  0  0  0  0  0  0  0  0  0
   38.1200   40.5030   31.2540 C   0  0  0  0  0  0  0  0  0  0  0  0
   38.5410   34.7690   35.5440 C   0  0  0  0  0  0  0  0  0  0  0  0
   39.0110   40.4960   25.6580 C   0  0  0  0  0  0  0  0  0  0  0  0
   37.7810   32.1900   34.0830 C   0  0  0  0  0  0  0  0  0  0  0  0
   38.4250   39.0280   31.4380 C   0  0  0  0  0  0  0  0  0  0  0  0
   36.3550   35.6580   32.4980 O   0  0  0  0  0  0  0  0  0  0  0  0
   37.6350   31.7100   35.3250 O   0  0  0  0  0  0  0  0  0  0  0  0
   37.7790   34.8120   34.2540 C   0  0  0  0  0  0  0  0  0  0  0  0
   37.5090   42.9330   28.1790 C   0  0  0  0  0  0  0  0  0  0  0  0
   39.5240   42.9760   25.8100 C   0  0  0  0  0  0  0  0  0  0  0  0
   38.0940   42.9450   30.2510 O   0  0  0  0  0  0  0  0  0  0  0  0
   37.6690   33.4740   33.5460 C   0  0  0  0  0  0  0  0  0  0  0  0
   37.4010   40.9370   29.9580 C   0  0  0  0  0  0  0  0  0  0  0  0
   37.0980   42.3840   29.5580 C   0  0  0  0  0  0  0  0  0  0  0  0
   36.2470   38.2510   31.6510 C   0  0  0  0  0  0  0  0  0  0  0  0
  1  6  1  0
  3  5  1  0
  5 17  1  0
  6 16  1  0
  8 23  1  0
  8  1  1  0
  9 13  1  0
 10  4  1  0
 11  3  1  0
 12  7  1  0
 12 15  1  0
 13  8  1  0
 14  6  2  0
 16 20  1  0
 16 10  1  0
 17  2  1  0
 17 22  1  0
 18  3  1  0
 20 12  1  0
 21  9  2  3
 22 21  1  0
 22 19  1  0
M  END
$$$$

     RDKit          3D

  9  9  0  0  0  0  0  0  0  0999 V2000
   37.7740   42.6860   28.3120 C   0  0  0  0  0  0  0  0  0  0  0  0
   36.6250   43.6690   28.4360 C   0  0  0  0  0  0  0  0  0  0  0  0
   35.6610   43.9100   28.0230 C   0  0  0  0  0  0  0  0  0  0  0  0
   37.6930   41.6530   29.2800 N   0  0  0  0  0  0  0  0  0  0  0  0
   40.5140   39.8380   27.9730 O   0  0  0  0  0  0  0  0  0  0  0  0
   39.3560   40.6310   28.0440 C   0  0  0  0  0  0  0  0  0  0  0  0
   38.6440   40.6180   29.3530 C   0  0  0  0  0  0  0  0  0  0  0  0
   38.2000   40.6420   27.0530 C   0  0  0  0  0  0  0  0  0  0  0  0
   37.5380   42.1820   26.9760 O   0  0  0  0  0  0  0  0  0  0  0  0
  1  2  1  0
  1  4  1  0
  3  2  2  0
  4  7  1  0
  6  5  1  0
  6  7  1  0
  8  6  1  0
  9  8  1  0
  9  1  1  0
M  END
$$$$

     RDKit          3D

  8  8  0  0  0  0  0  0  0  0999 V2000
   35.8520   39.9760   30.8810 O   0  0  0  0  0  0  0  0  0  0  0  0
   36.7290   40.9330   28.7410 C   0  0  0  0  0  0  0  0  0  0  0  0
   40.0890   38.5960   29.7740 O   0  0  0  0  0  0  0  0  0  0  0  0
   37.8520   40.8060   27.9530 C   0  0  0  0  0  0  0  0  0  0  0  0
   38.9800   39.2590   29.4970 C   0  0  0  0  0  0  0  0  0  0  0  0
   37.9500   39.5340   30.3800 C   0  0  0  0  0  0  0  0  0  0  0  0
   38.9670   40.0520   28.3080 C   0  0  0  0  0  0  0  0  0  0  0  0
   36.9010   40.3690   30.0060 C   0  0  0  0  0  0  0  0  0  0  0  0
  2  8  1  0
  4  7  1  0
  4  2  2  0
  5  3  1  0
  5  6  1  0
  7  5  2  0
  8  6  2  0
  8  1  1  0
M  END
$$$$

     RDKit          3D

 19 21  0  0  0  0  0  0  0  0999 V2000
   37.4560   35.8420   32.6020 N   0  0  0  0  0  0  0  0  0  0  0  0
   38.1410   44.6020   29.2070 C   0  0  0  0  0  0  0  0  0  0  0  0
   37.4940   44.3350   30.4130 O   0  0  0  0  0  0  0  0  0  0  0  0
   40.2460   44.4810   28.4530 C   0  0  0  0  0  0  0  0  0  0  0  0
   36.3780   36.3960   31.8680 C   0  0  0  0  0  0  0  0  0  0  0  0
   39.6480   39.0770   29.3410 C   0  0  0  0  0  0  0  0  0  0  0  0
   36.6400   37.4130   30.9280 C   0  0  0  0  0  0  0  0  0  0  0  0
   39.0910   43.5610   28.7850 C   0  0  0  0  0  0  0  0  0  0  0  0
   35.3500   33.3500   34.0620 N   0  0  0  0  0  0  0  0  0  0  0  0
   38.8420   40.5150   31.3380 C   0  0  0  0  0  0  0  0  0  0  0  0
   38.8110   37.9630   30.0950 C   0  0  0  0  0  0  0  0  0  0  0  0
   37.9250   38.2550   31.3170 C   0  0  0  0  0  0  0  0  0  0  0  0
   37.2550   34.7260   33.3550 N   0  0  0  0  0  0  0  0  0  0  0  0
   36.0230   34.3230   33.5360 C   0  0  0  0  0  0  0  0  0  0  0  0
   38.4970   39.3610   30.4030 C   0  0  0  0  0  0  0  0  0  0  0  0
   35.0050   35.5550   32.4880 S   0  0  0  0  0  0  0  0  0  0  0  0
   38.9370   42.2500   29.4450 O   0  0  0  0  0  0  0  0  0  0  0  0
   38.9170   42.7650   31.7650 O   0  0  0  0  0  0  0  0  0  0  0  0
   38.6980   41.8670   30.7530 C   0  0  0  0  0  0  0  0  0  0  0  0
  1 13  1  0
  2  3  1  0
  5 16  1  0
  5  1  2  0
  6 15  1  0
  7  5  1  0
  8  4  1  0
  8  2  1  0
  8 17  1  0
 11  6  1  0
 11 15  1  0
 11 12  1  0
 12  7  1  0
 13 14  2  0
 14  9  1  0
 15 12  1  0
 15 10  1  0
 16 14  1  0
 17 19  1  0
 19 10  1  0
 19 18  2  0
M  END
$$$$

     RDKit          3D

 21 21  0  0  0  0  0  0  0  0999 V2000
   38.5760   38.7440   29.2080 C   0  0  0  0  0  0  0  0  0  0  0  0
   35.4300   35.8460   31.7680 C   0  0  0  0  0  0  0  0  0  0  0  0
   38.9640   40.0890   29.4710 N   0  0  0  0  0  0  0  0  0  0  0  0
   31.8320   32.9310   37.0530 C   0  0  0  0  0  0  0  0  0  0  0  0
   38.4570   43.5400   29.1120 C   0  0  0  0  0  0  0  0  0  0  0  0
   31.7090   32.8640   34.6630 C   0  0  0  0  0  0  0  0  0  0  0  0
   40.0110   40.7420   28.9080 C   0  0  0  0  0  0  0  0  0  0  0  0
   35.8320   37.3220   31.5800 C   0  0  0  0  0  0  0  0  0  0  0  0
   34.0360   35.9450   32.5300 C   0  0  0  0  0  0  0  0  0  0  0  0
   32.9310   33.6780   32.6010 C   0  0  0  0  0  0  0  0  0  0  0  0
   40.0260   41.9990   29.4010 C   0  0  0  0  0  0  0  0  0  0  0  0
   32.6420   33.6910   34.0720 N   0  0  0  0  0  0  0  0  0  0  0  0
   39.8990   43.2940   28.6830 C   0  0  0  0  0  0  0  0  0  0  0  0
   38.0000   37.9970   30.3710 C   0  0  0  0  0  0  0  0  0  0  0  0
   37.4370   43.0190   28.1250 C   0  0  0  0  0  0  0  0  0  0  0  0
   31.0760   33.3970   35.9290 C   0  0  0  0  0  0  0  0  0  0  0  0
   38.1060   44.3700   29.8970 O   0  0  0  0  0  0  0  0  0  0  0  0
   41.0050   40.2650   28.3340 O   0  0  0  0  0  0  0  0  0  0  0  0
   41.0440   43.1210   29.0060 C   0  0  0  0  0  0  0  0  0  0  0  0
   32.8540   35.0940   32.0830 C   0  0  0  0  0  0  0  0  0  0  0  0
   36.5740   38.0280   30.6110 C   0  0  0  0  0  0  0  0  0  0  0  0
  1  3  1  0
  1 14  1  0
  2  9  1  0
  5 17  2  0
  6 16  1  0
  7  3  1  0
  8  2  1  0
 10 12  1  0
 11  7  1  0
 12  6  1  0
 13 19  1  0
 13  5  1  0
 13 11  1  0
 14 21  2  3
 15  5  1  0
 16  4  1  0
 18  7  2  0
 19 11  1  0
 20  9  1  0
 20 10  1  0
 21  8  1  0
M  END
$$$$

     RDKit          3D

 14 16  0  0  0  0  0  0  0  0999 V2000
   35.7780   40.7430   29.5860 O   0  0  0  0  0  0  0  0  0  0  0  0
   37.5460   39.1540   30.2990 N   0  0  0  0  0  0  0  0  0  0  0  0
   37.8770   41.4170   29.9770 C   0  0  0  0  0  0  0  0  0  0  0  0
   37.0190   40.1410   29.6860 C   0  0  0  0  0  0  0  0  0  0  0  0
   38.7970   39.3500   30.3600 C   0  0  0  0  0  0  0  0  0  0  0  0
   36.0370   37.3660   31.6330 C   0  0  0  0  0  0  0  0  0  0  0  0
   39.1320   40.6650   29.6890 C   0  0  0  0  0  0  0  0  0  0  0  0
   36.9600   38.1380   30.8450 C   0  0  0  0  0  0  0  0  0  0  0  0
   37.5240   37.1830   31.6560 C   0  0  0  0  0  0  0  0  0  0  0  0
   35.2190   36.0950   32.0060 C   0  0  0  0  0  0  0  0  0  0  0  0
   35.8940   42.0170   28.8480 C   0  0  0  0  0  0  0  0  0  0  0  0
   39.6700   38.4650   29.9340 O   0  0  0  0  0  0  0  0  0  0  0  0
   37.3590   43.7560   29.6220 O   0  0  0  0  0  0  0  0  0  0  0  0
   37.2890   42.4400   29.0310 C   0  0  0  0  0  0  0  0  0  0  0  0
  2  5  1  0
  2  8  1  0
  3  7  1  0
  4  1  1  0
  4  3  1  0
  4  2  1  0
  5 12  1  0
  6  9  1  0
  6 10  1  0
  7  5  1  0
  8  6  1  0
  8  9  1  0
 11 14  1  0
 11  1  1  0
 14 13  1  0
 14  3  1  0
M  END
$$$$

     RDKit          3D

 22 23  0  0  0  0  0  0  0  0999 V2000
   34.5450   37.0550   31.6090 C   0  0  0  0  0  0  0  0  0  0  0  0
   35.0360   36.0910   32.4560 O   0  0  0  0  0  0  0  0  0  0  0  0
   39.7960   39.0630   28.9820 O   0  0  0  0  0  0  0  0  0  0  0  0
   38.5930   41.0340   29.1090 N   0  0  0  0  0  0  0  0  0  0  0  0
   36.7330   37.3250   30.7110 C   0  0  0  0  0  0  0  0  0  0  0  0
   33.7790   46.4680   27.6810 C   0  0  0  0  0  0  0  0  0  0  0  0
   35.4890   37.7880   30.9470 C   0  0  0  0  0  0  0  0  0  0  0  0
   35.0660   39.1930   30.4920 C   0  0  0  0  0  0  0  0  0  0  0  0
   37.4170   39.2450   29.7270 C   0  0  0  0  0  0  0  0  0  0  0  0
   34.1900   35.1870   33.1450 C   0  0  0  0  0  0  0  0  0  0  0  0
   33.2060   37.3320   31.5810 O   0  0  0  0  0  0  0  0  0  0  0  0
   38.5610   39.6750   29.0200 C   0  0  0  0  0  0  0  0  0  0  0  0
   35.1240   46.9530   28.1400 C   0  0  0  0  0  0  0  0  0  0  0  0
   34.3290   44.5800   29.1340 C   0  0  0  0  0  0  0  0  0  0  0  0
   35.4900   43.7570   28.9870 C   0  0  0  0  0  0  0  0  0  0  0  0
   36.1350   39.7880   30.0010 C   0  0  0  0  0  0  0  0  0  0  0  0
   36.3630   43.0630   29.6470 C   0  0  0  0  0  0  0  0  0  0  0  0
   37.3950   41.9120   29.2180 C   0  0  0  0  0  0  0  0  0  0  0  0
   36.1680   40.9570   29.3110 C   0  0  0  0  0  0  0  0  0  0  0  0
   33.5500   45.0210   27.9940 C   0  0  0  0  0  0  0  0  0  0  0  0
   37.9170   42.6000   27.9060 C   0  0  0  0  0  0  0  0  0  0  0  0
   37.7290   38.0270   29.9560 C   0  0  0  0  0  0  0  0  0  0  0  0
  1  2  1  0
  2 10  1  0
  3 12  2  0
  4 18  1  0
  5  7  1  0
  6 20  1  0
  6 13  1  0
  7  1  1  0
  8  7  2  0
  9 22  1  0
  9 16  2  0
 11  1  2  0
 12  4  1  0
 12  9  1  0
 15 14  1  0
 15 17  2  3
 16  8  1  0
 18 21  1  0
 18 19  1  0
 18 17  1  0
 19 16  1  0
 20 14  1  0
 22  5  2  0
M  END
$$$$

     RDKit          3D

  6  5  0  0  0  0  0  0  0  0999 V2000
   38.4870   42.6270   27.7850 C   0  0  0  0  0  0  0  0  0  0  0  0
   38.5900   44.8590   27.1360 N   0  0  0  0  0  0  0  0  0  0  0  0
   39.3500   41.5550   28.4340 C   0  0  0  0  0  0  0  0  0  0  0  0
   38.9830   40.1580   27.8800 C   0  0  0  0  0  0  0  0  0  0  0  0
   39.0050   39.5780   29.3960 N   0  0  0  0  0  0  0  0  0  0  0  0
   38.3990   43.9400   28.0840 C   0  0  0  0  0  0  0  0  0  0  0  0
  1  6  1  0
  1  3  1  0
  2  6  1  0
  4  3  1  0
  4  5  1  0
M  END
$$$$
