
     RDKit          3D

  6  5  0  0  0  0  0  0  0  0999 V2000
   38.3770   38.3100   28.0990 C   0  0  0  0  0  0  0  0  0  0  0  0
   39.2150   39.5100   26.0700 C   0  0  0  0  0  0  0  0  0  0  0  0
   39.5310   39.1790   27.5120 C   0  0  0  0  0  0  0  0  0  0  0  0
   37.7550   37.2470   30.3350 N   0  0  0  0  0  0  0  0  0  0  0  0
   37.8990   38.4050   29.5390 C   0  0  0  0  0  0  0  0  0  0  0  0
   39.5430   40.3620   25.3050 N   0  0  0  0  0  0  0  0  0  0  0  0
  1  5  1  0
  2  3  1  0
  3  1  1  0
  5  4  1  0
  6  2  2  0
M  END
$$$$

     RDKit          3D

 13 12  0  0  0  0  0  0  0  0999 V2000
   38.9860   40.7780   30.7330 C   0  0  0  0  0  0  0  0  0  0  0  0
   35.5380   37.7810   29.8850 O   0  0  0  0  0  0  0  0  0  0  0  0
   34.3760   38.5640   32.3170 C   0  0  0  0  0  0  0  0  0  0  0  0
   38.1990   41.9080   31.3920 C   0  0  0  0  0  0  0  0  0  0  0  0
   38.1390   39.4960   30.3940 C   0  0  0  0  0  0  0  0  0  0  0  0
   40.1090   38.3980   29.2820 C   0  0  0  0  0  0  0  0  0  0  0  0
   36.8960   42.0130   31.2460 O   0  0  0  0  0  0  0  0  0  0  0  0
   34.2700   39.4930   30.9290 C   0  0  0  0  0  0  0  0  0  0  0  0
   38.6680   43.0660   32.0620 O   0  0  0  0  0  0  0  0  0  0  0  0
   35.6220   39.0480   30.3970 C   0  0  0  0  0  0  0  0  0  0  0  0
   38.7390   38.8650   29.1000 C   0  0  0  0  0  0  0  0  0  0  0  0
   38.2170   37.5920   28.8010 O   0  0  0  0  0  0  0  0  0  0  0  0
   36.7000   39.7900   30.3620 N   0  0  0  0  0  0  0  0  0  0  0  0
  1  4  1  0
  2 10  2  0
  4  9  1  0
  5  1  1  0
  7  4  2  0
  8  3  1  0
 10  8  1  0
 11  6  1  0
 11  5  1  0
 12 11  1  0
 13  5  1  0
 13 10  1  0
M  END
$$$$

     RDKit          3D

  9 10  0  0  0  0  0  0  0  0999 V2000
   40.3040   39.3930   28.9280 O   0  0  0  0  0  0  0  0  0  0  0  0
   37.8860   41.5100   27.3590 C   0  0  0  0  0  0  0  0  0  0  0  0
   38.2890   39.2040   26.8810 O   0  0  0  0  0  0  0  0  0  0  0  0
   38.9560   41.3960   28.4880 C   0  0  0  0  0  0  0  0  0  0  0  0
   39.9440   40.4350   28.0360 C   0  0  0  0  0  0  0  0  0  0  0  0
   38.5850   40.1800   27.5270 C   0  0  0  0  0  0  0  0  0  0  0  0
   37.7230   42.3720   26.6150 O   0  0  0  0  0  0  0  0  0  0  0  0
   41.0060   40.7530   27.2210 O   0  0  0  0  0  0  0  0  0  0  0  0
   39.1960   42.6890   28.8780 O   0  0  0  0  0  0  0  0  0  0  0  0
  2  7  1  0
  2  6  1  0
  2  4  1  0
  4  9  1  0
  5  4  1  0
  5  1  1  0
  6  3  1  0
  6  5  1  0
  6  4  1  0
  8  5  1  0
M  END
$$$$

     RDKit          3D

 11 12  0  0  0  0  0  0  0  0999 V2000
   38.9020   40.0040   27.3230 O   0  0  0  0  0  0  0  0  0  0  0  0
   34.2180   37.8940   31.9790 C   0  0  0  0  0  0  0  0  0  0  0  0
   38.1780   40.4250   28.0740 C   0  0  0  0  0  0  0  0  0  0  0  0
   37.2450   39.6750   29.0750 C   0  0  0  0  0  0  0  0  0  0  0  0
   38.2280   41.9710   28.2320 C   0  0  0  0  0  0  0  0  0  0  0  0
   36.1920   37.6060   29.6810 C   0  0  0  0  0  0  0  0  0  0  0  0
   36.4090   40.1660   30.1820 C   0  0  0  0  0  0  0  0  0  0  0  0
   35.2280   38.0930   30.8350 C   0  0  0  0  0  0  0  0  0  0  0  0
   33.8420   37.4970   30.5770 N   0  0  0  0  0  0  0  0  0  0  0  0
   36.9620   38.2620   28.9350 C   0  0  0  0  0  0  0  0  0  0  0  0
   35.3440   39.6650   30.6930 C   0  0  0  0  0  0  0  0  0  0  0  0
  1  3  2  0
  3  5  1  0
  4  3  1  0
  4  7  1  0
  7 11  1  0
  8  6  1  0
  8  2  1  0
  9  8  1  0
  9  2  1  0
 10  4  1  0
 10  6  2  0
 11  8  1  0
M  END
$$$$

     RDKit          3D

  9  8  0  0  0  0  0  0  0  0999 V2000
   42.2340   40.8980   37.4310 S   0  0  0  0  0  0  0  0  0  0  0  0
   40.9750   39.1220   34.0670 C   0  0  0  0  0  0  0  0  0  0  0  0
   42.1020   40.0410   34.7360 C   0  0  0  0  0  0  0  0  0  0  0  0
   40.5170   41.6240   33.7590 O   0  0  0  0  0  0  0  0  0  0  0  0
   39.7900   39.3150   34.4800 O   0  0  0  0  0  0  0  0  0  0  0  0
   41.4300   41.2920   34.2920 C   0  0  0  0  0  0  0  0  0  0  0  0
   42.8410   41.9630   33.5580 O   0  0  0  0  0  0  0  0  0  0  0  0
   42.8920   40.6460   35.9430 C   0  0  0  0  0  0  0  0  0  0  0  0
   41.3080   38.2370   33.2590 O   0  0  0  0  0  0  0  0  0  0  0  0
  2  5  1  0
  2  3  1  0
  3  8  1  0
  4  6  1  0
  6  3  1  0
  7  6  2  0
  8  1  2  0
  9  2  2  0
M  END
$$$$

     RDKit          3D

 10  9  0  0  0  0  0  0  0  0999 V2000
   41.2090   41.7430   33.4140 C   0  0  0  0  0  0  0  0  0  0  0  0
   42.7720   41.3270   35.8800 N   0  0  0  0  0  0  0  0  0  0  0  0
   40.7240   41.7590   30.7970 C   0  0  0  0  0  0  0  0  0  0  0  0
   41.4760   40.8080   36.0070 C   0  0  0  0  0  0  0  0  0  0  0  0
   41.9230   42.4410   30.2990 C   0  0  0  0  0  0  0  0  0  0  0  0
   40.6790   41.5490   32.2190 C   0  0  0  0  0  0  0  0  0  0  0  0
   41.2190   40.9980   37.5600 C   0  0  0  0  0  0  0  0  0  0  0  0
   40.6800   41.2890   34.7550 C   0  0  0  0  0  0  0  0  0  0  0  0
   41.3520   40.0260   38.2760 O   0  0  0  0  0  0  0  0  0  0  0  0
   41.4470   42.1340   38.0460 O   0  0  0  0  0  0  0  0  0  0  0  0
  1  8  1  0
  3  6  1  0
  4  2  1  0
  4  7  1  0
  5  3  1  0
  6  1  2  3
  7 10  2  0
  7  9  1  0
  8  4  1  0
M  END
$$$$

     RDKit          3D

 20 23  0  0  0  0  0  0  0  0999 V2000
   36.4160   38.8320   32.3440 C   0  0  0  0  0  0  0  0  0  0  0  0
   35.2380   38.7660   32.3300 O   0  0  0  0  0  0  0  0  0  0  0  0
   41.9320   43.2050   30.3500 O   0  0  0  0  0  0  0  0  0  0  0  0
   39.4960   42.8840   30.5780 C   0  0  0  0  0  0  0  0  0  0  0  0
   36.5650   35.7160   34.6690 C   0  0  0  0  0  0  0  0  0  0  0  0
   39.7460   40.4820   31.4770 C   0  0  0  0  0  0  0  0  0  0  0  0
   40.8480   42.5710   30.0250 C   0  0  0  0  0  0  0  0  0  0  0  0
   40.4760   40.0730   30.1800 C   0  0  0  0  0  0  0  0  0  0  0  0
   39.2800   44.0290   31.5640 C   0  0  0  0  0  0  0  0  0  0  0  0
   37.2090   39.9550   31.6360 C   0  0  0  0  0  0  0  0  0  0  0  0
   40.9530   41.2300   29.3280 C   0  0  0  0  0  0  0  0  0  0  0  0
   35.4310   34.7140   34.6080 C   0  0  0  0  0  0  0  0  0  0  0  0
   37.2640   37.8750   33.1230 C   0  0  0  0  0  0  0  0  0  0  0  0
   38.6660   38.4840   32.9940 C   0  0  0  0  0  0  0  0  0  0  0  0
   37.5260   41.4370   31.7020 C   0  0  0  0  0  0  0  0  0  0  0  0
   38.6380   39.4940   31.8610 C   0  0  0  0  0  0  0  0  0  0  0  0
   35.4480   35.6410   35.6200 C   0  0  0  0  0  0  0  0  0  0  0  0
   36.6800   36.8440   33.7470 N   0  0  0  0  0  0  0  0  0  0  0  0
   37.8440   35.1440   35.2640 C   0  0  0  0  0  0  0  0  0  0  0  0
   38.9060   41.7420   31.3390 C   0  0  0  0  0  0  0  0  0  0  0  0
  1 13  1  0
  2  1  2  0
  4 20  1  0
  4  9  1  0
  5 19  1  0
  5 17  1  0
  6  8  1  0
  6 16  1  0
  7  3  1  0
  7  4  1  0
 10 15  1  0
 10 16  1  0
 10  1  1  0
 11  7  1  0
 11  8  1  0
 12  5  1  0
 12 17  1  0
 13 18  1  0
 14 13  1  0
 16 14  1  0
 18  5  1  0
 20  6  1  0
 20 15  1  0
M  END
$$$$

     RDKit          3D

 12 12  0  0  0  0  0  0  0  0999 V2000
   36.8590   40.1050   28.7390 O   0  0  0  0  0  0  0  0  0  0  0  0
   36.0190   39.5410   31.1410 C   0  0  0  0  0  0  0  0  0  0  0  0
   38.8340   39.1280   28.0190 O   0  0  0  0  0  0  0  0  0  0  0  0
   35.5960   38.6010   30.1420 O   0  0  0  0  0  0  0  0  0  0  0  0
   36.4820   37.4590   30.3160 C   0  0  0  0  0  0  0  0  0  0  0  0
   38.1740   41.7010   27.3640 O   0  0  0  0  0  0  0  0  0  0  0  0
   37.8600   37.7420   29.7220 C   0  0  0  0  0  0  0  0  0  0  0  0
   37.1400   42.2990   28.2710 O   0  0  0  0  0  0  0  0  0  0  0  0
   37.6670   38.9060   28.7850 C   0  0  0  0  0  0  0  0  0  0  0  0
   37.4040   41.1690   28.1610 C   0  0  0  0  0  0  0  0  0  0  0  0
   36.3350   36.0130   30.0330 C   0  0  0  0  0  0  0  0  0  0  0  0
   35.4690   40.9050   31.4080 C   0  0  0  0  0  0  0  0  0  0  0  0
  1  9  1  0
  2 12  1  0
  3  9  2  0
  4  5  1  0
  4  2  1  0
  5 11  1  0
  6 10  1  0
  6  8  1  0
  7  5  1  0
  9  7  1  0
 10  8  1  0
 10  1  1  0
M  END
$$$$

     RDKit          3D

 22 22  0  0  0  0  0  0  0  0999 V2000
   39.0280   43.6650   30.8410 C   0  0  0  0  0  0  0  0  0  0  0  0
   37.4190   36.8280   33.9720 C   0  0  0  0  0  0  0  0  0  0  0  0
   39.0010   43.3310   28.1750 S   0  0  0  0  0  0  0  0  0  0  0  0
   37.2750   40.2290   34.6080 S   0  0  0  0  0  0  0  0  0  0  0  0
   37.5050   35.4960   33.9740 C   0  0  0  0  0  0  0  0  0  0  0  0
   37.9280   40.8850   31.4150 C   0  0  0  0  0  0  0  0  0  0  0  0
   37.6790   33.1560   33.4700 C   0  0  0  0  0  0  0  0  0  0  0  0
   37.5380   34.4910   32.9350 C   0  0  0  0  0  0  0  0  0  0  0  0
   37.6320   37.7000   33.0280 N   0  0  0  0  0  0  0  0  0  0  0  0
   36.9150   32.0000   33.1360 C   0  0  0  0  0  0  0  0  0  0  0  0
   37.3070   30.7410   33.7750 C   0  0  0  0  0  0  0  0  0  0  0  0
   37.5170   33.2340   34.9940 C   0  0  0  0  0  0  0  0  0  0  0  0
   38.5710   42.6360   29.7840 C   0  0  0  0  0  0  0  0  0  0  0  0
   37.5280   41.7150   32.2100 O   0  0  0  0  0  0  0  0  0  0  0  0
   38.0620   44.7310   30.7360 O   0  0  0  0  0  0  0  0  0  0  0  0
   37.6180   34.7280   35.6100 S   0  0  0  0  0  0  0  0  0  0  0  0
   35.5760   32.0550   32.4120 C   0  0  0  0  0  0  0  0  0  0  0  0
   37.6070   39.0530   33.1390 C   0  0  0  0  0  0  0  0  0  0  0  0
   38.8210   38.7760   31.0290 N   0  0  0  0  0  0  0  0  0  0  0  0
   38.1580   39.5750   31.8410 C   0  0  0  0  0  0  0  0  0  0  0  0
   36.7800   37.3550   35.2570 C   0  0  0  0  0  0  0  0  0  0  0  0
   38.5260   41.3070   30.2920 N   0  0  0  0  0  0  0  0  0  0  0  0
  2 21  1  0
  3 13  2  0
  5  2  1  0
  5 16  1  0
  6 20  1  0
  6 14  2  0
  7 10  1  0
  7 12  1  0
  8  7  1  0
  8  5  1  0
  9 18  1  0
  9  2  2  3
 10 11  1  0
 12 16  1  0
 13 22  1  0
 13  1  1  0
 15  1  1  0
 17 10  1  0
 18  4  2  0
 19 20  2  0
 20 18  1  0
 22  6  1  0
M  END
$$$$

     RDKit          3D

 14 14  0  0  0  0  0  0  0  0999 V2000
   37.0820   38.3330   36.8610 C   0  0  0  0  0  0  0  0  0  0  0  0
   39.4260   38.5980   32.1850 C   0  0  0  0  0  0  0  0  0  0  0  0
   38.2120   37.3650   37.2180 C   0  0  0  0  0  0  0  0  0  0  0  0
   35.8800   37.5780   36.8560 O   0  0  0  0  0  0  0  0  0  0  0  0
   36.7820   39.2540   38.0510 C   0  0  0  0  0  0  0  0  0  0  0  0
   37.4000   38.8170   35.2910 C   0  0  0  0  0  0  0  0  0  0  0  0
   38.5180   39.7520   31.7500 C   0  0  0  0  0  0  0  0  0  0  0  0
   39.8970   41.0130   31.3910 O   0  0  0  0  0  0  0  0  0  0  0  0
   38.7450   37.8580   33.3020 C   0  0  0  0  0  0  0  0  0  0  0  0
   37.4080   40.0050   32.8840 C   0  0  0  0  0  0  0  0  0  0  0  0
   38.2850   41.5250   30.2100 O   0  0  0  0  0  0  0  0  0  0  0  0
   37.7450   40.1080   35.4890 O   0  0  0  0  0  0  0  0  0  0  0  0
   38.8730   40.7720   31.0460 C   0  0  0  0  0  0  0  0  0  0  0  0
   37.4040   38.6770   33.6980 C   0  0  0  0  0  0  0  0  0  0  0  0
  1  3  1  0
  1  5  1  0
  2  9  1  0
  4  1  1  0
  6 12  1  0
  6  1  1  0
  7 13  1  0
  7  2  1  0
  7 10  1  0
  9 14  1  0
 10 14  1  0
 11 13  2  0
 13  8  1  0
 14  6  1  0
M  END
$$$$

     RDKit          3D

 20 20  0  0  0  0  0  0  0  0999 V2000
   38.4330   40.4360   31.9970 C   0  0  0  0  0  0  0  0  0  0  0  0
   39.7080   42.7440   29.2510 C   0  0  0  0  0  0  0  0  0  0  0  0
   35.2300   37.5060   33.1310 O   0  0  0  0  0  0  0  0  0  0  0  0
   37.1300   34.6810   33.4820 C   0  0  0  0  0  0  0  0  0  0  0  0
   37.4410   38.5740   33.3580 C   0  0  0  0  0  0  0  0  0  0  0  0
   36.7130   37.2250   33.0320 C   0  0  0  0  0  0  0  0  0  0  0  0
   39.0860   40.8860   30.8450 C   0  0  0  0  0  0  0  0  0  0  0  0
   37.7820   36.0460   33.0470 C   0  0  0  0  0  0  0  0  0  0  0  0
   38.5060   35.9440   31.7720 O   0  0  0  0  0  0  0  0  0  0  0  0
   37.2470   33.4130   32.7770 C   0  0  0  0  0  0  0  0  0  0  0  0
   38.0720   39.0900   32.1660 N   0  0  0  0  0  0  0  0  0  0  0  0
   39.3420   42.2520   30.6460 C   0  0  0  0  0  0  0  0  0  0  0  0
   38.3610   42.7180   32.8200 C   0  0  0  0  0  0  0  0  0  0  0  0
   38.9170   33.0010   35.5990 C   0  0  0  0  0  0  0  0  0  0  0  0
   38.0350   41.3740   32.9590 C   0  0  0  0  0  0  0  0  0  0  0  0
   38.7660   36.2470   33.9910 F   0  0  0  0  0  0  0  0  0  0  0  0
   37.9190   43.6500   33.9190 C   0  0  0  0  0  0  0  0  0  0  0  0
   37.7330   33.9530   35.9590 C   0  0  0  0  0  0  0  0  0  0  0  0
   39.0170   43.1520   31.6620 C   0  0  0  0  0  0  0  0  0  0  0  0
   37.1280   34.6410   34.8510 O   0  0  0  0  0  0  0  0  0  0  0  0
  1 11  1  0
  1 15  1  0
  2 12  1  0
  4 10  1  0
  4 20  1  0
  6  8  1  0
  6  3  1  0
  6  5  1  0
  7  1  2  0
  8  9  1  0
  8  4  1  0
  8 16  1  0
 11  5  1  0
 12  7  1  0
 12 19  2  0
 13 15  2  0
 13 17  1  0
 14 18  1  0
 19 13  1  0
 20 18  1  0
M  END
$$$$

     RDKit          3D

 13 12  0  0  0  0  0  0  0  0999 V2000
   35.1610   38.0140   31.1100 C   0  0  0  0  0  0  0  0  0  0  0  0
   34.7020   37.9760   29.9960 O   0  0  0  0  0  0  0  0  0  0  0  0
   38.0450   39.1370   30.0320 C   0  0  0  0  0  0  0  0  0  0  0  0
   39.1950   39.7380   29.5240 C   0  0  0  0  0  0  0  0  0  0  0  0
   38.0630   40.3830   32.0080 O   0  0  0  0  0  0  0  0  0  0  0  0
   36.2830   38.8610   31.5730 C   0  0  0  0  0  0  0  0  0  0  0  0
   33.2780   36.6180   31.6820 C   0  0  0  0  0  0  0  0  0  0  0  0
   35.7860   39.7040   32.5020 O   0  0  0  0  0  0  0  0  0  0  0  0
   40.4470   38.8300   29.4390 C   0  0  0  0  0  0  0  0  0  0  0  0
   37.6390   38.0180   29.2830 O   0  0  0  0  0  0  0  0  0  0  0  0
   37.4810   39.1710   31.2770 N   0  0  0  0  0  0  0  0  0  0  0  0
   34.2520   37.6440   31.8910 O   0  0  0  0  0  0  0  0  0  0  0  0
   41.5650   39.5390   29.7150 O   0  0  0  0  0  0  0  0  0  0  0  0
  1  6  1  0
  1 12  1  0
  2  1  2  0
  3 11  1  0
  4  3  1  0
  6  8  2  0
  7 12  1  0
  9  4  1  0
  9 13  1  0
 10  3  2  0
 11  6  1  0
 11  5  1  0
M  END
$$$$

     RDKit          3D

 19 20  0  0  0  0  0  0  0  0999 V2000
   35.2560   34.3010   32.4650 C   0  0  0  0  0  0  0  0  0  0  0  0
   34.5890   33.1090   33.2420 C   0  0  0  0  0  0  0  0  0  0  0  0
   36.9250   37.9220   30.7590 N   0  0  0  0  0  0  0  0  0  0  0  0
   37.2820   41.7560   31.3440 C   0  0  0  0  0  0  0  0  0  0  0  0
   35.1990   36.7170   32.1000 C   0  0  0  0  0  0  0  0  0  0  0  0
   36.9860   35.4530   31.1740 C   0  0  0  0  0  0  0  0  0  0  0  0
   36.9330   42.9370   30.7080 O   0  0  0  0  0  0  0  0  0  0  0  0
   35.0490   39.5070   31.4660 O   0  0  0  0  0  0  0  0  0  0  0  0
   38.7710   37.0510   29.5010 O   0  0  0  0  0  0  0  0  0  0  0  0
   36.2570   39.2460   30.9180 C   0  0  0  0  0  0  0  0  0  0  0  0
   38.1960   38.2490   30.0610 C   0  0  0  0  0  0  0  0  0  0  0  0
   36.3780   36.6790   31.3590 C   0  0  0  0  0  0  0  0  0  0  0  0
   36.5790   34.3570   31.9240 C   0  0  0  0  0  0  0  0  0  0  0  0
   33.0200   33.4890   33.8130 N   0  0  0  0  0  0  0  0  0  0  0  0
   37.2360   40.3930   30.5960 C   0  0  0  0  0  0  0  0  0  0  0  0
   36.7240   40.7720   29.1480 C   0  0  0  0  0  0  0  0  0  0  0  0
   34.5880   35.5340   32.5110 C   0  0  0  0  0  0  0  0  0  0  0  0
   38.6030   39.6790   30.6210 C   0  0  0  0  0  0  0  0  0  0  0  0
   39.6170   40.6380   31.0560 O   0  0  0  0  0  0  0  0  0  0  0  0
  1 17  1  0
  1  2  1  0
  2 14  1  0
  3 10  1  0
  3 12  1  0
  5 17  2  0
  6 12  2  0
  6 13  1  0
  7  4  1  0
  9 11  2  0
 10  8  2  0
 11 18  1  0
 11  3  1  0
 12  5  1  0
 13  1  2  0
 15 16  1  0
 15 18  1  0
 15 10  1  0
 15  4  1  0
 18 19  1  0
M  END
$$$$

     RDKit          3D

 10 10  0  0  0  0  0  0  0  0999 V2000
   38.5080   37.8540   30.2070 P   0  0  0  0  0  0  0  0  0  0  0  0
   38.0700   39.2390   34.4990 N   0  0  0  0  0  0  0  0  0  0  0  0
   39.6200   36.8300   29.6000 O   0  0  0  0  0  0  0  0  0  0  0  0
   38.7330   38.9030   28.9300 O   0  0  0  0  0  0  0  0  0  0  0  0
   39.5820   38.4910   31.2660 N   0  0  0  0  0  0  0  0  0  0  0  0
   37.3370   38.8570   30.8430 O   0  0  0  0  0  0  0  0  0  0  0  0
   39.2810   38.3200   32.6590 C   0  0  0  0  0  0  0  0  0  0  0  0
   36.0550   39.7430   32.4510 O   0  0  0  0  0  0  0  0  0  0  0  0
   37.1880   39.3220   32.1380 C   0  0  0  0  0  0  0  0  0  0  0  0
   38.3420   39.4520   33.0720 C   0  0  0  0  0  0  0  0  0  0  0  0
  1  4  2  0
  1  6  1  0
  1  5  1  0
  3  1  1  0
  5  7  1  0
  6  9  1  0
  7 10  1  0
  9  8  2  0
  9 10  1  0
 10  2  1  0
M  END
$$$$

     RDKit          3D

  7  6  0  0  0  0  0  0  0  0999 V2000
   42.0040   40.1750   33.7540 O   0  0  0  0  0  0  0  0  0  0  0  0
   40.3650   40.3280   31.9880 C   0  0  0  0  0  0  0  0  0  0  0  0
   41.6350   38.7290   30.8510 O   0  0  0  0  0  0  0  0  0  0  0  0
   41.6890   40.4390   32.7190 C   0  0  0  0  0  0  0  0  0  0  0  0
   39.0310   40.8560   31.8340 O   0  0  0  0  0  0  0  0  0  0  0  0
   41.0090   40.0100   30.6840 C   0  0  0  0  0  0  0  0  0  0  0  0
   40.0920   40.1340   29.5800 C   0  0  0  0  0  0  0  0  0  0  0  0
  2  5  1  0
  2  4  1  0
  4  1  2  0
  6  7  1  0
  6  3  1  0
  6  2  1  0
M  END
$$$$

     RDKit          3D

 20 21  0  0  0  0  0  0  0  0999 V2000
   37.2980   38.9140   30.7120 N   0  0  0  0  0  0  0  0  0  0  0  0
   34.8180   37.0490   32.4810 N   0  0  0  0  0  0  0  0  0  0  0  0
   35.2730   38.4050   29.8170 O   0  0  0  0  0  0  0  0  0  0  0  0
   39.3950   37.1400   29.7870 O   0  0  0  0  0  0  0  0  0  0  0  0
   35.4540   36.2970   33.5880 C   0  0  0  0  0  0  0  0  0  0  0  0
   33.3570   35.2390   32.1280 C   0  0  0  0  0  0  0  0  0  0  0  0
   38.0110   40.2820   30.2100 C   0  0  0  0  0  0  0  0  0  0  0  0
   39.4790   38.1600   29.9090 C   0  0  0  0  0  0  0  0  0  0  0  0
   38.5170   41.8010   30.1430 C   0  0  0  0  0  0  0  0  0  0  0  0
   35.3480   38.3640   32.2010 C   0  0  0  0  0  0  0  0  0  0  0  0
   37.8220   42.9270   30.0470 C   0  0  0  0  0  0  0  0  0  0  0  0
   34.3270   36.2430   31.4230 C   0  0  0  0  0  0  0  0  0  0  0  0
   36.7600   40.7540   30.0200 C   0  0  0  0  0  0  0  0  0  0  0  0
   39.8990   41.8950   30.8190 O   0  0  0  0  0  0  0  0  0  0  0  0
   35.9950   38.5010   30.8310 C   0  0  0  0  0  0  0  0  0  0  0  0
   36.5380   42.9480   29.6550 C   0  0  0  0  0  0  0  0  0  0  0  0
   36.0020   41.6690   29.6600 C   0  0  0  0  0  0  0  0  0  0  0  0
   39.3370   39.6120   30.0910 C   0  0  0  0  0  0  0  0  0  0  0  0
   34.5140   35.3760   34.2440 C   0  0  0  0  0  0  0  0  0  0  0  0
   33.1960   35.4220   33.3740 N   0  0  0  0  0  0  0  0  0  0  0  0
  1 15  1  0
  2  5  1  0
  3 15  2  0
  4  8  2  0
  5 19  1  0
  6 20  1  0
  7 18  1  0
  7  1  1  0
  8 18  2  0
  9  7  1  0
  9 14  1  0
 10  2  1  0
 11  9  1  0
 12  6  1  0
 12  2  1  0
 13  7  1  0
 15 10  1  0
 16 17  1  0
 16 11  1  0
 17 13  1  0
 20 19  1  0
M  END
$$$$

     RDKit          3D

 13 14  0  0  0  0  0  0  0  0999 V2000
   37.6110   43.0390   27.8880 C   0  0  0  0  0  0  0  0  0  0  0  0
   39.9630   39.9610   28.0530 C   0  0  0  0  0  0  0  0  0  0  0  0
   40.1100   40.5180   29.5880 C   0  0  0  0  0  0  0  0  0  0  0  0
   39.8630   42.6180   30.9450 C   0  0  0  0  0  0  0  0  0  0  0  0
   40.3060   41.8210   31.8840 O   0  0  0  0  0  0  0  0  0  0  0  0
   38.6610   42.6030   28.9510 N   0  0  0  0  0  0  0  0  0  0  0  0
   37.7570   43.3020   29.3090 N   0  0  0  0  0  0  0  0  0  0  0  0
   39.7730   42.0250   29.5510 C   0  0  0  0  0  0  0  0  0  0  0  0
   37.0040   42.0240   27.0280 C   0  0  0  0  0  0  0  0  0  0  0  0
   38.7970   40.3140   27.1530 N   0  0  0  0  0  0  0  0  0  0  0  0
   39.5190   43.7030   31.3920 O   0  0  0  0  0  0  0  0  0  0  0  0
   40.9150   39.4080   27.5570 O   0  0  0  0  0  0  0  0  0  0  0  0
   37.8070   40.9160   26.6340 C   0  0  0  0  0  0  0  0  0  0  0  0
  1  9  1  0
  1  6  1  0
  1  7  1  0
  2  3  1  0
  4 11  2  0
  4  5  1  0
  6  7  1  0
  6  8  1  0
  8  3  1  0
  8  4  1  0
 10  2  1  0
 12  2  2  0
 13  9  1  0
 13 10  1  0
M  END
$$$$

     RDKit          3D

 12 11  0  0  0  0  0  0  0  0999 V2000
   37.5140   39.9670   27.9570 C   0  0  0  0  0  0  0  0  0  0  0  0
   38.3660   39.0480   27.2430 O   0  0  0  0  0  0  0  0  0  0  0  0
   35.1040   40.1670   27.3280 O   0  0  0  0  0  0  0  0  0  0  0  0
   40.9170   40.7000   30.6710 O   0  0  0  0  0  0  0  0  0  0  0  0
   36.1390   40.3750   28.1730 C   0  0  0  0  0  0  0  0  0  0  0  0
   38.2350   39.9160   29.2870 C   0  0  0  0  0  0  0  0  0  0  0  0
   37.5480   40.0390   30.4190 O   0  0  0  0  0  0  0  0  0  0  0  0
   39.0400   42.0600   28.7050 O   0  0  0  0  0  0  0  0  0  0  0  0
   40.7700   40.1660   29.3280 C   0  0  0  0  0  0  0  0  0  0  0  0
   36.0740   41.8500   28.7250 C   0  0  0  0  0  0  0  0  0  0  0  0
   39.4350   40.7020   28.8770 C   0  0  0  0  0  0  0  0  0  0  0  0
   36.2140   42.6880   27.6020 O   0  0  0  0  0  0  0  0  0  0  0  0
  1  2  1  0
  1  5  1  0
  1  6  1  0
  5  3  1  0
  5 10  1  0
  6  7  1  0
  9  4  1  0
 11  8  1  0
 11  6  1  0
 11  9  1  0
 12 10  1  0
M  END
$$$$

     RDKit          3D

  7  6  0  0  0  0  0  0  0  0999 V2000
   40.2010   38.2850   29.6670 N   0  0  0  0  0  0  0  0  0  0  0  0
   37.2230   39.4480   28.2060 C   0  0  0  0  0  0  0  0  0  0  0  0
   40.1620   40.4520   28.9680 O   0  0  0  0  0  0  0  0  0  0  0  0
   37.0970   40.8910   27.7500 O   0  0  0  0  0  0  0  0  0  0  0  0
   39.4880   39.4210   29.7040 C   0  0  0  0  0  0  0  0  0  0  0  0
   38.0360   39.4810   29.3910 C   0  0  0  0  0  0  0  0  0  0  0  0
   37.9310   38.7930   27.2240 O   0  0  0  0  0  0  0  0  0  0  0  0
  1  5  1  0
  2  6  1  0
  4  2  1  0
  5  3  1  0
  6  5  1  0
  7  2  1  0
M  END
$$$$

     RDKit          3D

 21 22  0  0  0  0  0  0  0  0999 V2000
   37.0790   39.9750   34.0040 O   0  0  0  0  0  0  0  0  0  0  0  0
   36.1440   39.5830   30.4280 C   0  0  0  0  0  0  0  0  0  0  0  0
   37.6570   35.5740   31.4180 C   0  0  0  0  0  0  0  0  0  0  0  0
   38.3970   38.0470   34.6960 O   0  0  0  0  0  0  0  0  0  0  0  0
   36.0910   38.8450   31.5210 C   0  0  0  0  0  0  0  0  0  0  0  0
   37.3740   34.3190   32.1450 C   0  0  0  0  0  0  0  0  0  0  0  0
   36.0350   34.5050   32.8810 C   0  0  0  0  0  0  0  0  0  0  0  0
   37.3220   36.9920   34.8720 S   0  0  0  0  0  0  0  0  0  0  0  0
   37.1890   38.8710   32.1080 C   0  0  0  0  0  0  0  0  0  0  0  0
   34.1830   38.6960   30.7120 C   0  0  0  0  0  0  0  0  0  0  0  0
   34.9810   39.5150   30.0050 C   0  0  0  0  0  0  0  0  0  0  0  0
   34.7490   40.3340   28.6190 C   0  0  0  0  0  0  0  0  0  0  0  0
   38.1000   35.9130   35.4780 O   0  0  0  0  0  0  0  0  0  0  0  0
   39.2120   39.3920   32.7560 N   0  0  0  0  0  0  0  0  0  0  0  0
   36.0910   37.3310   35.5570 O   0  0  0  0  0  0  0  0  0  0  0  0
   36.9130   36.7760   33.2320 C   0  0  0  0  0  0  0  0  0  0  0  0
   35.8810   35.8540   33.3820 C   0  0  0  0  0  0  0  0  0  0  0  0
   38.0140   39.0770   33.3920 S   0  0  0  0  0  0  0  0  0  0  0  0
   34.8800   38.2570   31.6870 N   0  0  0  0  0  0  0  0  0  0  0  0
   37.9210   36.6530   32.3560 N   0  0  0  0  0  0  0  0  0  0  0  0
   37.8780   33.2240   31.8330 N   0  0  0  0  0  0  0  0  0  0  0  0
  2  5  1  0
  3  6  1  0
  3 20  1  0
  4  8  1  0
  5 19  1  0
  5  9  1  0
  6  7  1  0
  7 17  1  0
  8 13  1  0
  8 15  1  0
  9 18  1  0
 10 19  2  0
 11  2  2  0
 11 10  1  0
 12 11  1  0
 16 17  1  0
 16  8  1  0
 18 14  1  0
 18  1  1  0
 18  4  1  0
 20 16  1  0
 21  6  2  0
M  END
$$$$
