
     RDKit          3D

 17 17  0  0  0  0  0  0  0  0999 V2000
   42.8770   35.3840   29.6340 O   0  0  0  0  0  0  0  0  0  0  0  0
   38.0120   37.4320   31.3500 C   0  0  0  0  0  0  0  0  0  0  0  0
   36.2460   36.0740   32.1770 C   0  0  0  0  0  0  0  0  0  0  0  0
   40.3970   37.2260   31.7170 C   0  0  0  0  0  0  0  0  0  0  0  0
   43.1660   38.6130   33.2050 O   0  0  0  0  0  0  0  0  0  0  0  0
   40.8130   38.6360   31.3080 C   0  0  0  0  0  0  0  0  0  0  0  0
   38.4830   38.7210   30.3650 Cl  0  0  0  0  0  0  0  0  0  0  0  0
   42.0040   39.2060   31.2410 O   0  0  0  0  0  0  0  0  0  0  0  0
   38.9570   36.6670   31.9810 C   0  0  0  0  0  0  0  0  0  0  0  0
   36.6510   37.2150   31.4760 C   0  0  0  0  0  0  0  0  0  0  0  0
   40.4920   35.1390   30.6520 O   0  0  0  0  0  0  0  0  0  0  0  0
   38.5530   35.5290   32.6410 C   0  0  0  0  0  0  0  0  0  0  0  0
   43.2070   39.0590   31.9350 C   0  0  0  0  0  0  0  0  0  0  0  0
   37.1980   35.2000   32.6780 C   0  0  0  0  0  0  0  0  0  0  0  0
   41.1470   36.3630   30.7750 C   0  0  0  0  0  0  0  0  0  0  0  0
   44.4930   39.6640   31.5100 C   0  0  0  0  0  0  0  0  0  0  0  0
   42.4860   36.4340   30.5060 C   0  0  0  0  0  0  0  0  0  0  0  0
  1 17  1  0
  2 10  2  0
  2  9  1  0
  3 14  2  0
  4  6  1  0
  4  9  1  0
  7  2  1  0
  8  6  1  0
  8 13  1  0
  9 12  2  0
 10  3  1  0
 12 14  1  0
 13  5  2  0
 15 11  1  0
 15  4  1  0
 16 13  1  0
 17 15  1  0
M  END
$$$$

     RDKit          3D

  8  8  0  0  0  0  0  0  0  0999 V2000
   41.5430   35.7210   27.9490 O   0  0  0  0  0  0  0  0  0  0  0  0
   42.0020   36.4960   28.7120 C   0  0  0  0  0  0  0  0  0  0  0  0
   43.0380   37.5490   30.8110 C   0  0  0  0  0  0  0  0  0  0  0  0
   42.7470   36.3280   30.0090 C   0  0  0  0  0  0  0  0  0  0  0  0
   42.7260   37.6910   27.9530 O   0  0  0  0  0  0  0  0  0  0  0  0
   43.3810   38.7740   28.7400 C   0  0  0  0  0  0  0  0  0  0  0  0
   43.5030   38.7200   30.0870 C   0  0  0  0  0  0  0  0  0  0  0  0
   44.0290   37.4470   31.8120 O   0  0  0  0  0  0  0  0  0  0  0  0
  1  2  2  0
  2  4  1  0
  3  8  1  0
  4  3  1  0
  5  2  1  0
  5  6  1  0
  6  7  2  0
  7  3  1  0
M  END
$$$$

     RDKit          3D

 10 10  0  0  0  0  0  0  0  0999 V2000
   41.8950   38.0520   28.7470 C   0  0  0  0  0  0  0  0  0  0  0  0
   40.4800   37.0420   30.5230 C   0  0  0  0  0  0  0  0  0  0  0  0
   41.4780   39.1730   29.7490 C   0  0  0  0  0  0  0  0  0  0  0  0
   42.9810   36.3900   27.5890 C   0  0  0  0  0  0  0  0  0  0  0  0
   41.5280   36.6470   29.5620 O   0  0  0  0  0  0  0  0  0  0  0  0
   40.4010   38.5790   30.5700 C   0  0  0  0  0  0  0  0  0  0  0  0
   39.9020   35.8460   31.1170 C   0  0  0  0  0  0  0  0  0  0  0  0
   42.5320   39.8370   30.1340 O   0  0  0  0  0  0  0  0  0  0  0  0
   40.5300   38.3030   27.7150 O   0  0  0  0  0  0  0  0  0  0  0  0
   42.8720   37.7260   28.2410 C   0  0  0  0  0  0  0  0  0  0  0  0
  1  9  1  0
  1  5  1  0
  1  3  1  0
  2  6  1  0
  2  7  1  0
  3  8  1  0
  3  6  1  0
  4 10  1  0
  5  2  1  0
 10  1  1  0
M  END
$$$$

     RDKit          3D

  6  5  0  0  0  0  0  0  0  0999 V2000
   42.8190   36.6040   28.9390 C   0  0  0  0  0  0  0  0  0  0  0  0
   43.4890   37.6100   28.6790 O   0  0  0  0  0  0  0  0  0  0  0  0
   41.7870   36.8270   30.1160 C   0  0  0  0  0  0  0  0  0  0  0  0
   42.3630   37.6480   31.3850 C   0  0  0  0  0  0  0  0  0  0  0  0
   41.3790   35.4550   30.6930 C   0  0  0  0  0  0  0  0  0  0  0  0
   42.8150   35.7100   27.7730 O   0  0  0  0  0  0  0  0  0  0  0  0
  1  3  1  0
  2  1  1  0
  3  5  1  0
  3  4  1  0
  6  1  2  0
M  END
$$$$

     RDKit          3D

  9  9  0  0  0  0  0  0  0  0999 V2000
   42.1950   38.6760   27.6730 O   0  0  0  0  0  0  0  0  0  0  0  0
   41.9650   37.0470   30.7440 O   0  0  0  0  0  0  0  0  0  0  0  0
   43.0550   38.9790   29.8600 C   0  0  0  0  0  0  0  0  0  0  0  0
   43.3460   39.5120   31.0060 O   0  0  0  0  0  0  0  0  0  0  0  0
   42.7120   37.5560   29.6730 C   0  0  0  0  0  0  0  0  0  0  0  0
   41.1840   40.3220   29.2130 O   0  0  0  0  0  0  0  0  0  0  0  0
   41.5720   36.2350   27.8630 C   0  0  0  0  0  0  0  0  0  0  0  0
   42.0770   37.5050   28.3570 C   0  0  0  0  0  0  0  0  0  0  0  0
   42.3840   39.7140   28.7060 C   0  0  0  0  0  0  0  0  0  0  0  0
  1  8  1  0
  1  9  1  0
  3  4  1  0
  5  3  1  0
  5  2  1  0
  8  7  1  0
  8  5  1  0
  9  6  1  0
  9  3  1  0
M  END
$$$$

     RDKit          3D

 11 12  0  0  0  0  0  0  0  0999 V2000
   40.4860   40.4660   27.2500 C   0  0  0  0  0  0  0  0  0  0  0  0
   39.5770   39.1340   27.5450 C   0  0  0  0  0  0  0  0  0  0  0  0
   39.4140   41.6400   26.8950 C   0  0  0  0  0  0  0  0  0  0  0  0
   41.1400   36.3990   29.5890 C   0  0  0  0  0  0  0  0  0  0  0  0
   40.1950   38.2930   28.4600 N   0  0  0  0  0  0  0  0  0  0  0  0
   38.5810   38.5640   26.5890 O   0  0  0  0  0  0  0  0  0  0  0  0
   39.1200   40.5220   27.9480 C   0  0  0  0  0  0  0  0  0  0  0  0
   41.9700   37.0060   30.4750 O   0  0  0  0  0  0  0  0  0  0  0  0
   40.7740   36.3050   27.2150 C   0  0  0  0  0  0  0  0  0  0  0  0
   40.6590   37.0900   28.4410 C   0  0  0  0  0  0  0  0  0  0  0  0
   41.5440   34.9340   29.3690 C   0  0  0  0  0  0  0  0  0  0  0  0
  1  3  1  0
  1  2  1  0
  1  7  1  0
  2  6  1  0
  2  7  1  0
  2  5  1  0
  4 11  1  0
  4  8  1  0
  7  3  1  0
  9 10  1  0
 10  5  2  3
 10  4  1  0
M  END
$$$$

     RDKit          3D

 18 20  0  0  0  0  0  0  0  0999 V2000
   34.7320   35.2430   32.1880 C   0  0  0  0  0  0  0  0  0  0  0  0
   41.7390   38.0260   29.7970 C   0  0  0  0  0  0  0  0  0  0  0  0
   41.0200   36.8830   29.6070 C   0  0  0  0  0  0  0  0  0  0  0  0
   36.6620   36.0960   31.6170 C   0  0  0  0  0  0  0  0  0  0  0  0
   39.0030   38.2610   30.2060 N   0  0  0  0  0  0  0  0  0  0  0  0
   37.7720   38.1190   30.7100 C   0  0  0  0  0  0  0  0  0  0  0  0
   36.8360   35.2050   32.4970 C   0  0  0  0  0  0  0  0  0  0  0  0
   33.5660   34.8900   32.3410 O   0  0  0  0  0  0  0  0  0  0  0  0
   35.2780   36.1680   31.3950 N   0  0  0  0  0  0  0  0  0  0  0  0
   41.6430   35.6690   29.1570 C   0  0  0  0  0  0  0  0  0  0  0  0
   35.7660   34.5690   32.7840 C   0  0  0  0  0  0  0  0  0  0  0  0
   42.5700   38.4360   28.6360 C   0  0  0  0  0  0  0  0  0  0  0  0
   45.0020   37.6760   28.0600 S   0  0  0  0  0  0  0  0  0  0  0  0
   39.6030   37.0240   29.9740 C   0  0  0  0  0  0  0  0  0  0  0  0
   43.4110   37.2730   28.2840 C   0  0  0  0  0  0  0  0  0  0  0  0
   38.7330   36.0350   30.4420 N   0  0  0  0  0  0  0  0  0  0  0  0
   42.9510   35.8630   28.4900 C   0  0  0  0  0  0  0  0  0  0  0  0
   37.6830   36.7420   30.9200 C   0  0  0  0  0  0  0  0  0  0  0  0
  1  8  2  0
  1 11  1  0
  3  2  1  0
  3 14  1  0
  4  7  1  0
  5  6  1  0
  6 18  2  0
  7 11  2  0
  9  4  2  0
  9  1  1  0
 10  3  1  0
 12  2  1  0
 13 15  2  0
 14  5  2  0
 14 16  1  0
 15 17  1  0
 15 12  1  0
 16 18  1  0
 17 10  1  0
 18  4  1  0
M  END
$$$$

     RDKit          3D

 10 10  0  0  0  0  0  0  0  0999 V2000
   39.7810   37.2040   29.8510 C   0  0  0  0  0  0  0  0  0  0  0  0
   40.9810   36.5070   29.9120 C   0  0  0  0  0  0  0  0  0  0  0  0
   40.5210   37.7920   30.5350 C   0  0  0  0  0  0  0  0  0  0  0  0
   43.5460   39.3670   31.6340 O   0  0  0  0  0  0  0  0  0  0  0  0
   40.4360   35.2630   30.5250 C   0  0  0  0  0  0  0  0  0  0  0  0
   42.8130   38.5740   30.9840 C   0  0  0  0  0  0  0  0  0  0  0  0
   43.4090   37.3860   30.3690 C   0  0  0  0  0  0  0  0  0  0  0  0
   41.3910   38.6640   31.0940 C   0  0  0  0  0  0  0  0  0  0  0  0
   44.5590   36.9410   30.5920 O   0  0  0  0  0  0  0  0  0  0  0  0
   41.0360   39.3200   32.3140 O   0  0  0  0  0  0  0  0  0  0  0  0
  1  2  1  0
  1  3  1  0
  2  5  1  0
  2  3  1  0
  3  8  1  0
  6  8  1  0
  6  4  2  0
  7  9  2  0
  7  6  1  0
  8 10  1  0
M  END
$$$$

     RDKit          3D

 18 20  0  0  0  0  0  0  0  0999 V2000
   33.7310   37.1790   29.4850 C   0  0  0  0  0  0  0  0  0  0  0  0
   36.0130   37.2940   29.4330 C   0  0  0  0  0  0  0  0  0  0  0  0
   39.7510   37.7900   29.8720 C   0  0  0  0  0  0  0  0  0  0  0  0
   40.6500   36.8610   29.0340 C   0  0  0  0  0  0  0  0  0  0  0  0
   35.6630   36.6250   30.5740 C   0  0  0  0  0  0  0  0  0  0  0  0
   34.8240   37.5540   28.7420 O   0  0  0  0  0  0  0  0  0  0  0  0
   36.5480   36.7740   31.6110 N   0  0  0  0  0  0  0  0  0  0  0  0
   41.0390   36.3530   26.6430 O   0  0  0  0  0  0  0  0  0  0  0  0
   37.6870   37.4770   31.4230 C   0  0  0  0  0  0  0  0  0  0  0  0
   40.1380   36.9620   27.5560 C   0  0  0  0  0  0  0  0  0  0  0  0
   41.8340   37.1880   30.3790 S   0  0  0  0  0  0  0  0  0  0  0  0
   42.3690   36.1650   31.2660 O   0  0  0  0  0  0  0  0  0  0  0  0
   32.6510   36.7350   28.6160 N   0  0  0  0  0  0  0  0  0  0  0  0
   40.5410   37.7490   31.2880 N   0  0  0  0  0  0  0  0  0  0  0  0
   37.3340   37.6660   29.2850 C   0  0  0  0  0  0  0  0  0  0  0  0
   43.1240   37.4190   29.7300 O   0  0  0  0  0  0  0  0  0  0  0  0
   34.3790   36.2180   30.4540 C   0  0  0  0  0  0  0  0  0  0  0  0
   38.3300   37.5410   30.2200 C   0  0  0  0  0  0  0  0  0  0  0  0
  1 13  1  0
  1 17  1  0
  2  5  1  0
  3 18  1  0
  3 14  1  0
  4 10  1  0
  4  3  1  0
  4 11  1  0
  5  7  2  0
  6  2  1  0
  6  1  1  0
  8 10  1  0
  9  7  1  0
 11 12  2  0
 11 14  1  0
 15  2  2  0
 15 18  1  0
 16 11  2  0
 17  5  1  0
 18  9  2  0
M  END
$$$$

     RDKit          3D

 19 21  0  0  0  0  0  0  0  0999 V2000
   41.2320   34.9400   29.7000 C   0  0  0  0  0  0  0  0  0  0  0  0
   40.1630   35.7580   30.1810 C   0  0  0  0  0  0  0  0  0  0  0  0
   35.4210   37.9410   31.1360 C   0  0  0  0  0  0  0  0  0  0  0  0
   41.3310   37.8080   29.7680 C   0  0  0  0  0  0  0  0  0  0  0  0
   42.4770   37.0240   29.4420 C   0  0  0  0  0  0  0  0  0  0  0  0
   37.6770   36.3300   32.4080 C   0  0  0  0  0  0  0  0  0  0  0  0
   36.3190   35.7930   32.1160 C   0  0  0  0  0  0  0  0  0  0  0  0
   39.2490   35.4270   30.9810 N   0  0  0  0  0  0  0  0  0  0  0  0
   38.4510   36.5720   31.1870 N   0  0  0  0  0  0  0  0  0  0  0  0
   34.0250   36.3240   32.2940 C   0  0  0  0  0  0  0  0  0  0  0  0
   41.4160   39.0930   29.9850 O   0  0  0  0  0  0  0  0  0  0  0  0
   33.7850   35.0380   32.8090 C   0  0  0  0  0  0  0  0  0  0  0  0
   38.1780   38.6890   29.7180 N   0  0  0  0  0  0  0  0  0  0  0  0
   35.3130   36.6570   31.8600 C   0  0  0  0  0  0  0  0  0  0  0  0
   42.3910   35.6090   29.2740 C   0  0  0  0  0  0  0  0  0  0  0  0
   36.0120   34.4550   32.3640 C   0  0  0  0  0  0  0  0  0  0  0  0
   34.6400   34.1230   32.4010 C   0  0  0  0  0  0  0  0  0  0  0  0
   38.8040   37.6070   30.2280 C   0  0  0  0  0  0  0  0  0  0  0  0
   40.0860   37.1420   29.9150 C   0  0  0  0  0  0  0  0  0  0  0  0
  1  2  1  0
  2  8  1  0
  3 14  1  0
  4 19  1  0
  4 11  1  0
  5  4  2  0
  7 16  2  0
  7  6  1  0
  8  9  1  0
  9  6  1  0
 10 12  1  0
 14  7  1  0
 14 10  2  0
 15  5  1  0
 15  1  2  0
 16 17  1  0
 17 12  1  0
 18 13  1  0
 18  9  1  0
 19  2  2  0
 19 18  1  0
M  END
$$$$

     RDKit          3D

  9  8  0  0  0  0  0  0  0  0999 V2000
   40.5680   37.6060   28.2500 C   0  0  0  0  0  0  0  0  0  0  0  0
   41.1170   39.9380   28.4740 O   0  0  0  0  0  0  0  0  0  0  0  0
   39.0030   39.3370   28.6970 O   0  0  0  0  0  0  0  0  0  0  0  0
   40.7040   36.5430   29.2180 C   0  0  0  0  0  0  0  0  0  0  0  0
   42.6160   37.8100   29.9220 O   0  0  0  0  0  0  0  0  0  0  0  0
   39.6160   36.3940   30.1330 O   0  0  0  0  0  0  0  0  0  0  0  0
   41.9110   36.7420   30.0560 C   0  0  0  0  0  0  0  0  0  0  0  0
   42.3640   35.4270   30.5790 C   0  0  0  0  0  0  0  0  0  0  0  0
   40.2220   38.9640   28.6420 C   0  0  0  0  0  0  0  0  0  0  0  0
  1  9  1  0
  1  4  1  0
  2  9  2  0
  4  7  1  0
  4  6  1  0
  5  7  1  0
  7  8  1  0
  9  3  1  0
M  END
$$$$

     RDKit          3D

 23 24  0  0  0  0  0  0  0  0999 V2000
   39.7310   35.6040   30.5670 C   0  0  0  0  0  0  0  0  0  0  0  0
   41.9270   37.9250   25.5910 O   0  0  0  0  0  0  0  0  0  0  0  0
   33.7270   35.4540   32.9830 C   0  0  0  0  0  0  0  0  0  0  0  0
   41.4090   38.6470   26.7430 P   0  0  0  0  0  0  0  0  0  0  0  0
   40.5830   39.8770   26.5670 O   0  0  0  0  0  0  0  0  0  0  0  0
   31.3250   35.7470   33.3030 N   0  0  0  0  0  0  0  0  0  0  0  0
   37.9710   34.6930   32.1580 C   0  0  0  0  0  0  0  0  0  0  0  0
   42.5690   39.0030   27.7990 O   0  0  0  0  0  0  0  0  0  0  0  0
   32.6390   34.1330   34.6550 N   0  0  0  0  0  0  0  0  0  0  0  0
   38.4120   38.8710   29.2190 C   0  0  0  0  0  0  0  0  0  0  0  0
   39.2730   37.8380   29.7140 N   0  0  0  0  0  0  0  0  0  0  0  0
   40.5890   37.5520   27.7590 C   0  0  0  0  0  0  0  0  0  0  0  0
   34.8600   36.4030   31.1730 C   0  0  0  0  0  0  0  0  0  0  0  0
   40.9700   35.1630   29.8050 C   0  0  0  0  0  0  0  0  0  0  0  0
   38.8580   36.8400   30.4940 C   0  0  0  0  0  0  0  0  0  0  0  0
   35.8470   35.8620   32.2040 C   0  0  0  0  0  0  0  0  0  0  0  0
   32.4570   35.1780   33.6200 C   0  0  0  0  0  0  0  0  0  0  0  0
   39.3510   34.6050   31.5920 C   0  0  0  0  0  0  0  0  0  0  0  0
   33.6470   35.9910   31.6960 O   0  0  0  0  0  0  0  0  0  0  0  0
   37.6550   36.9390   31.1460 C   0  0  0  0  0  0  0  0  0  0  0  0
   40.5820   37.6100   29.2080 C   0  0  0  0  0  0  0  0  0  0  0  0
   35.1220   35.3110   33.2490 C   0  0  0  0  0  0  0  0  0  0  0  0
   37.2220   35.8830   31.8960 C   0  0  0  0  0  0  0  0  0  0  0  0
  1 18  1  0
  2  4  2  0
  3 22  2  0
  3 17  1  0
  4 12  1  0
  4  8  1  0
  5  4  1  0
  6 17  2  0
 10 11  1  0
 11 15  1  0
 12 21  1  0
 13 19  1  0
 13 16  2  0
 14  1  1  0
 15  1  2  0
 15 20  1  0
 16 22  1  0
 17  9  1  0
 18  7  2  0
 19  3  1  0
 20 23  2  0
 21 11  1  0
 23  7  1  0
 23 16  1  0
M  END
$$$$

     RDKit          3D

 25 25  0  0  0  0  0  0  0  0999 V2000
   34.2360   33.7610   33.5150 C   0  0  0  0  0  0  0  0  0  0  0  0
   32.8710   37.5420   34.9820 O   0  0  0  0  0  0  0  0  0  0  0  0
   32.3740   36.2810   35.2270 C   0  0  0  0  0  0  0  0  0  0  0  0
   35.6820   33.6010   33.7420 C   0  0  0  0  0  0  0  0  0  0  0  0
   42.2310   39.6820   26.8290 C   0  0  0  0  0  0  0  0  0  0  0  0
   38.8330   34.2220   32.8910 N   0  0  0  0  0  0  0  0  0  0  0  0
   38.3440   35.4510   33.0150 C   0  0  0  0  0  0  0  0  0  0  0  0
   43.0080   37.9720   29.4260 C   0  0  0  0  0  0  0  0  0  0  0  0
   41.8600   38.9900   29.3540 C   0  0  0  0  0  0  0  0  0  0  0  0
   41.9320   39.6020   28.0150 N   0  0  0  0  0  0  0  0  0  0  0  0
   37.0270   35.5390   32.9320 N   0  0  0  0  0  0  0  0  0  0  0  0
   44.1610   38.3980   28.4530 C   0  0  0  0  0  0  0  0  0  0  0  0
   31.0020   36.2770   35.1930 O   0  0  0  0  0  0  0  0  0  0  0  0
   36.6380   34.3110   33.0140 C   0  0  0  0  0  0  0  0  0  0  0  0
   37.7430   33.5480   32.7720 N   0  0  0  0  0  0  0  0  0  0  0  0
   42.1880   36.2560   32.5240 C   0  0  0  0  0  0  0  0  0  0  0  0
   43.2330   36.5490   31.4450 C   0  0  0  0  0  0  0  0  0  0  0  0
   32.6490   35.9220   33.3030 C   0  0  0  0  0  0  0  0  0  0  0  0
   42.4840   36.9690   30.3340 O   0  0  0  0  0  0  0  0  0  0  0  0
   39.1400   36.6460   33.2290 C   0  0  0  0  0  0  0  0  0  0  0  0
   33.9110   35.2040   33.7930 C   0  0  0  0  0  0  0  0  0  0  0  0
   44.5180   35.7580   31.1900 C   0  0  0  0  0  0  0  0  0  0  0  0
   39.9370   36.8500   32.0190 N   0  0  0  0  0  0  0  0  0  0  0  0
   41.1790   37.3980   32.5160 C   0  0  0  0  0  0  0  0  0  0  0  0
   32.5450   35.4380   34.0490 C   0  0  0  0  0  0  0  0  0  0  0  0
  1  4  1  0
  1 21  1  0
  2  3  1  0
  5 10  3  0
  6  7  2  0
  7 20  1  0
  8 12  1  0
  8 19  1  0
  9  8  1  0
 10  9  1  0
 11 14  2  0
 11  7  1  0
 13  3  1  0
 14  4  1  0
 15  6  1  0
 15 14  1  0
 17 22  1  0
 17 16  1  0
 19 17  1  0
 21 25  1  0
 23 24  1  0
 23 20  1  0
 24 16  1  0
 25 18  1  0
 25  3  1  0
M  END
$$$$

     RDKit          3D

 16 16  0  0  0  0  0  0  0  0999 V2000
   41.4540   37.6990   29.5280 O   0  0  0  0  0  0  0  0  0  0  0  0
   42.7560   38.6500   27.5540 C   0  0  0  0  0  0  0  0  0  0  0  0
   39.3430   38.2350   28.5720 C   0  0  0  0  0  0  0  0  0  0  0  0
   40.1700   37.3870   29.2460 C   0  0  0  0  0  0  0  0  0  0  0  0
   40.0940   35.1200   31.9760 N   0  0  0  0  0  0  0  0  0  0  0  0
   37.9570   38.0930   28.6120 C   0  0  0  0  0  0  0  0  0  0  0  0
   38.2920   36.2630   30.0870 C   0  0  0  0  0  0  0  0  0  0  0  0
   40.8660   34.1730   30.0970 O   0  0  0  0  0  0  0  0  0  0  0  0
   42.0810   40.0690   27.4320 C   0  0  0  0  0  0  0  0  0  0  0  0
   42.3930   37.7880   28.6980 N   0  0  0  0  0  0  0  0  0  0  0  0
   39.7590   39.2990   27.9100 O   0  0  0  0  0  0  0  0  0  0  0  0
   40.2470   35.1370   30.6530 C   0  0  0  0  0  0  0  0  0  0  0  0
   44.3280   38.9540   28.1460 C   0  0  0  0  0  0  0  0  0  0  0  0
   37.4710   37.1670   29.4170 C   0  0  0  0  0  0  0  0  0  0  0  0
   36.4470   39.0080   27.2970 I   0  0  0  0  0  0  0  0  0  0  0  0
   39.6130   36.2880   29.8640 C   0  0  0  0  0  0  0  0  0  0  0  0
  2 13  1  0
  2 10  1  0
  3  6  2  0
  3  4  1  0
  4  1  1  0
  4 16  2  0
  6 14  1  0
  8 12  2  0
  9  2  1  0
 10  1  1  0
 11  3  1  0
 12  5  1  0
 14  7  2  0
 15  6  1  0
 16  7  1  0
 16 12  1  0
M  END
$$$$

     RDKit          3D

 18 19  0  0  0  0  0  0  0  0999 V2000
   39.9190   37.1410   32.1580 C   0  0  0  0  0  0  0  0  0  0  0  0
   39.2090   33.6340   32.9090 O   0  0  0  0  0  0  0  0  0  0  0  0
   37.7430   32.0310   34.6890 C   0  0  0  0  0  0  0  0  0  0  0  0
   38.0390   37.6030   30.6780 C   0  0  0  0  0  0  0  0  0  0  0  0
   37.0870   31.1370   34.3240 O   0  0  0  0  0  0  0  0  0  0  0  0
   40.0970   40.0430   30.0330 C   0  0  0  0  0  0  0  0  0  0  0  0
   41.2230   37.3120   32.0760 N   0  0  0  0  0  0  0  0  0  0  0  0
   37.0760   36.4130   31.3500 S   0  0  0  0  0  0  0  0  0  0  0  0
   40.3080   38.8210   30.8660 C   0  0  0  0  0  0  0  0  0  0  0  0
   38.7860   31.7220   35.7550 C   0  0  0  0  0  0  0  0  0  0  0  0
   41.4660   38.3670   31.3050 N   0  0  0  0  0  0  0  0  0  0  0  0
   39.3640   37.9050   31.2170 C   0  0  0  0  0  0  0  0  0  0  0  0
   39.0770   36.2760   33.0410 C   0  0  0  0  0  0  0  0  0  0  0  0
   37.4190   33.4720   34.4650 C   0  0  0  0  0  0  0  0  0  0  0  0
   37.7490   35.5090   32.7980 C   0  0  0  0  0  0  0  0  0  0  0  0
   39.7770   35.8970   34.0910 O   0  0  0  0  0  0  0  0  0  0  0  0
   37.7160   38.1370   29.2280 C   0  0  0  0  0  0  0  0  0  0  0  0
   38.1870   34.1670   33.3610 C   0  0  0  0  0  0  0  0  0  0  0  0
  1 13  1  0
  2 18  2  0
  3 10  1  0
  4 17  1  0
  4 12  1  0
  4  8  1  0
  5  3  2  0
  7  1  1  0
  8 15  1  0
  9  6  1  0
  9 12  1  0
  9 11  1  0
 11  7  1  0
 12  1  2  0
 13 16  1  0
 14  3  1  0
 15 13  2  0
 15 18  1  0
 18 14  1  0
M  END
$$$$

     RDKit          3D

 23 25  0  0  0  0  0  0  0  0999 V2000
   35.0380   36.0520   28.8180 C   0  0  0  0  0  0  0  0  0  0  0  0
   32.7270   35.9430   29.3220 C   0  0  0  0  0  0  0  0  0  0  0  0
   38.1530   37.4070   28.7490 C   0  0  0  0  0  0  0  0  0  0  0  0
   41.2160   36.4710   29.2440 C   0  0  0  0  0  0  0  0  0  0  0  0
   42.6520   36.3350   27.3560 O   0  0  0  0  0  0  0  0  0  0  0  0
   31.4780   35.3830   29.0990 F   0  0  0  0  0  0  0  0  0  0  0  0
   36.5540   36.9360   30.6070 C   0  0  0  0  0  0  0  0  0  0  0  0
   32.8640   36.8470   30.3660 C   0  0  0  0  0  0  0  0  0  0  0  0
   43.3560   39.0910   30.9520 N   0  0  0  0  0  0  0  0  0  0  0  0
   39.0140   37.6220   29.8510 C   0  0  0  0  0  0  0  0  0  0  0  0
   33.7700   35.6030   28.4760 C   0  0  0  0  0  0  0  0  0  0  0  0
   41.5480   37.6770   30.1200 C   0  0  0  0  0  0  0  0  0  0  0  0
   39.4420   38.2360   31.1400 C   0  0  0  0  0  0  0  0  0  0  0  0
   35.2120   36.8230   29.9530 C   0  0  0  0  0  0  0  0  0  0  0  0
   42.9370   38.3070   29.8790 C   0  0  0  0  0  0  0  0  0  0  0  0
   43.2840   35.3470   27.9950 C   0  0  0  0  0  0  0  0  0  0  0  0
   39.6490   40.7580   31.3970 C   0  0  0  0  0  0  0  0  0  0  0  0
   40.8740   37.8420   31.3320 C   0  0  0  0  0  0  0  0  0  0  0  0
   38.9880   39.4570   31.7440 C   0  0  0  0  0  0  0  0  0  0  0  0
   34.1150   37.4140   30.5520 C   0  0  0  0  0  0  0  0  0  0  0  0
   38.1500   39.3770   32.6270 O   0  0  0  0  0  0  0  0  0  0  0  0
   37.5950   37.8800   30.0920 C   0  0  0  0  0  0  0  0  0  0  0  0
   42.2320   36.1720   28.4040 C   0  0  0  0  0  0  0  0  0  0  0  0
  1 14  1  0
  2  8  2  0
  3 10  1  0
  3 22  1  0
  5 16  1  0
  5 23  1  0
  6  2  1  0
  8 20  1  0
 10 22  1  0
 10 13  1  0
 11  1  2  0
 11  2  1  0
 12  4  1  0
 12 18  1  0
 13 18  1  0
 13 19  1  0
 14 20  2  0
 14  7  1  0
 15 12  1  0
 15  9  1  0
 16 23  1  0
 17 19  1  0
 19 21  2  0
 22  7  1  0
 23  4  1  0
M  END
$$$$

     RDKit          3D

  1  0  0  0  0  0  0  0  0  0999 V2000
   41.7260   37.1940   30.5500 Br  0  0  0  0  0  0  0  0  0  0  0  0
M  END
$$$$

     RDKit          3D

 13 13  0  0  0  0  0  0  0  0999 V2000
   42.2860   35.7830   29.7550 C   0  0  0  0  0  0  0  0  0  0  0  0
   39.7480   36.0780   30.3830 C   0  0  0  0  0  0  0  0  0  0  0  0
   41.2410   38.0300   29.5350 O   0  0  0  0  0  0  0  0  0  0  0  0
   37.4020   36.6820   29.7790 O   0  0  0  0  0  0  0  0  0  0  0  0
   39.8290   39.3000   27.9910 O   0  0  0  0  0  0  0  0  0  0  0  0
   39.4970   34.9340   30.6140 O   0  0  0  0  0  0  0  0  0  0  0  0
   43.4140   36.7420   29.7650 C   0  0  0  0  0  0  0  0  0  0  0  0
   42.0610   34.4430   30.2830 O   0  0  0  0  0  0  0  0  0  0  0  0
   40.2070   38.9460   29.3850 C   0  0  0  0  0  0  0  0  0  0  0  0
   41.0750   36.7230   30.1200 C   0  0  0  0  0  0  0  0  0  0  0  0
   38.5400   37.0590   30.0580 C   0  0  0  0  0  0  0  0  0  0  0  0
   38.9010   38.5560   30.0140 C   0  0  0  0  0  0  0  0  0  0  0  0
   38.0520   39.4500   30.1380 O   0  0  0  0  0  0  0  0  0  0  0  0
  1  7  1  0
  1  8  1  0
  2  6  2  0
  3 10  1  0
  4 11  2  0
  9  5  1  0
  9  3  1  0
  9 12  1  0
 10  1  1  0
 10  2  1  0
 11  2  1  0
 12 11  1  0
 12 13  2  0
M  END
$$$$

     RDKit          3D

 10 10  0  0  0  0  0  0  0  0999 V2000
   43.7930   37.7640   28.4090 C   0  0  0  0  0  0  0  0  0  0  0  0
   41.2220   38.7820   28.2810 C   0  0  0  0  0  0  0  0  0  0  0  0
   43.7870   38.0860   30.8230 C   0  0  0  0  0  0  0  0  0  0  0  0
   41.5090   38.1710   27.0090 C   0  0  0  0  0  0  0  0  0  0  0  0
   43.4660   36.8680   30.9950 O   0  0  0  0  0  0  0  0  0  0  0  0
   42.2260   37.7320   28.2560 C   0  0  0  0  0  0  0  0  0  0  0  0
   44.6110   37.7020   27.0410 Cl  0  0  0  0  0  0  0  0  0  0  0  0
   44.1960   38.6680   31.8470 O   0  0  0  0  0  0  0  0  0  0  0  0
   41.8870   36.2940   28.4710 C   0  0  0  0  0  0  0  0  0  0  0  0
   43.9570   38.7290   29.5880 N   0  0  0  0  0  0  0  0  0  0  0  0
  1  7  1  0
  1 10  1  0
  3  5  2  0
  3  8  1  0
  4  6  1  0
  4  2  1  0
  6  2  1  0
  6  1  1  0
  6  9  1  0
 10  3  1  0
M  END
$$$$

     RDKit          3D

  9  8  0  0  0  0  0  0  0  0999 V2000
   36.0760   36.9160   28.6190 C   0  0  0  0  0  0  0  0  0  0  0  0
   34.9430   35.8200   30.5020 C   0  0  0  0  0  0  0  0  0  0  0  0
   39.1880   34.3050   31.1840 C   0  0  0  0  0  0  0  0  0  0  0  0
   33.9190   35.7190   29.3780 C   0  0  0  0  0  0  0  0  0  0  0  0
   39.7190   36.9830   30.7890 C   0  0  0  0  0  0  0  0  0  0  0  0
   35.2260   36.9430   27.6550 C   0  0  0  0  0  0  0  0  0  0  0  0
   37.3070   36.1010   31.2190 C   0  0  0  0  0  0  0  0  0  0  0  0
   38.7650   35.7670   30.8140 C   0  0  0  0  0  0  0  0  0  0  0  0
   36.3070   36.3520   30.0160 C   0  0  0  0  0  0  0  0  0  0  0  0
  4  2  1  0
  5  8  1  0
  6  1  2  0
  8  3  1  0
  8  7  1  0
  9  1  1  0
  9  2  1  0
  9  7  1  0
M  END
$$$$
