
     RDKit          3D

 10 10  0  0  0  0  0  0  0  0999 V2000
   40.2480   36.6610   27.0830 C   0  0  0  0  0  0  0  0  0  0  0  0
   41.4740   34.4540   26.9090 C   0  0  0  0  0  0  0  0  0  0  0  0
   39.9210   33.7890   28.8290 C   0  0  0  0  0  0  0  0  0  0  0  0
   39.4120   32.6160   29.3940 C   0  0  0  0  0  0  0  0  0  0  0  0
   40.7930   33.6840   27.7490 C   0  0  0  0  0  0  0  0  0  0  0  0
   40.0970   37.7800   26.7350 O   0  0  0  0  0  0  0  0  0  0  0  0
   39.4800   35.1320   29.2230 C   0  0  0  0  0  0  0  0  0  0  0  0
   41.0280   35.7790   26.3730 C   0  0  0  0  0  0  0  0  0  0  0  0
   39.8100   31.5510   28.5370 O   0  0  0  0  0  0  0  0  0  0  0  0
   39.9680   36.4660   28.5840 C   0  0  0  0  0  0  0  0  0  0  0  0
  1 10  1  0
  2  5  1  0
  3  7  1  0
  3  4  1  0
  5  3  2  0
  6  1  2  0
  8  2  1  0
  8  1  1  0
  9  4  1  0
 10  7  1  0
M  END
$$$$

     RDKit          3D

 10 10  0  0  0  0  0  0  0  0999 V2000
   42.8750   37.0620   26.1600 C   0  0  0  0  0  0  0  0  0  0  0  0
   40.2460   33.7410   26.4050 C   0  0  0  0  0  0  0  0  0  0  0  0
   38.7500   33.3080   28.1740 O   0  0  0  0  0  0  0  0  0  0  0  0
   40.8150   35.7790   26.9510 N   0  0  0  0  0  0  0  0  0  0  0  0
   39.5060   34.0790   27.6620 C   0  0  0  0  0  0  0  0  0  0  0  0
   41.1980   37.0400   26.4570 C   0  0  0  0  0  0  0  0  0  0  0  0
   39.7440   35.4970   28.0080 C   0  0  0  0  0  0  0  0  0  0  0  0
   41.4120   34.6010   26.5290 O   0  0  0  0  0  0  0  0  0  0  0  0
   44.2900   35.6040   24.9850 O   0  0  0  0  0  0  0  0  0  0  0  0
   43.0380   36.2840   24.9140 N   0  0  0  0  0  0  0  0  0  0  0  0
  1  6  1  0
  2  8  1  0
  2  5  1  0
  4  7  1  0
  5  7  1  0
  5  3  2  0
  6  4  1  0
  8  4  1  0
 10  9  1  0
 10  1  1  0
M  END
$$$$

     RDKit          3D

 16 18  0  0  0  0  0  0  0  0999 V2000
   36.9340   33.5120   30.4570 C   0  0  0  0  0  0  0  0  0  0  0  0
   37.1770   35.6680   29.0080 C   0  0  0  0  0  0  0  0  0  0  0  0
   35.9160   36.3770   28.9340 C   0  0  0  0  0  0  0  0  0  0  0  0
   37.0850   32.4010   29.5850 O   0  0  0  0  0  0  0  0  0  0  0  0
   40.4910   35.8210   27.1720 C   0  0  0  0  0  0  0  0  0  0  0  0
   38.7490   34.1940   28.1990 N   0  0  0  0  0  0  0  0  0  0  0  0
   40.6250   36.7530   26.3520 O   0  0  0  0  0  0  0  0  0  0  0  0
   35.5640   35.3010   29.7430 O   0  0  0  0  0  0  0  0  0  0  0  0
   40.3900   37.2830   27.6800 C   0  0  0  0  0  0  0  0  0  0  0  0
   39.2160   35.1250   27.8770 C   0  0  0  0  0  0  0  0  0  0  0  0
   36.9850   34.7280   29.7210 C   0  0  0  0  0  0  0  0  0  0  0  0
   36.5920   30.7110   32.4920 O   0  0  0  0  0  0  0  0  0  0  0  0
   36.5000   31.7590   31.6350 C   0  0  0  0  0  0  0  0  0  0  0  0
   36.7590   32.9840   31.7180 O   0  0  0  0  0  0  0  0  0  0  0  0
   38.2830   36.1330   28.1630 O   0  0  0  0  0  0  0  0  0  0  0  0
   36.8790   31.2750   30.2820 C   0  0  0  0  0  0  0  0  0  0  0  0
  1  4  1  0
  1 14  1  0
  2 15  1  0
  2 11  1  0
  3  2  1  0
  3  8  1  0
  4 16  1  0
  5  9  1  0
  5 10  1  0
  7  5  1  0
  7  9  1  0
 10 15  1  0
 10  6  2  0
 11  8  1  0
 11  1  1  0
 13 14  1  0
 13 12  2  0
 16 13  1  0
M  END
$$$$

     RDKit          3D

 15 16  0  0  0  0  0  0  0  0999 V2000
   33.3420   34.3440   31.9170 C   0  0  0  0  0  0  0  0  0  0  0  0
   34.4660   33.1560   32.1830 C   0  0  0  0  0  0  0  0  0  0  0  0
   39.4900   32.8220   28.6780 C   0  0  0  0  0  0  0  0  0  0  0  0
   40.6220   34.2520   27.3370 C   0  0  0  0  0  0  0  0  0  0  0  0
   38.7270   31.9290   29.6140 S   0  0  0  0  0  0  0  0  0  0  0  0
   35.4480   31.0190   33.0920 C   0  0  0  0  0  0  0  0  0  0  0  0
   39.0440   33.9710   29.2730 N   0  0  0  0  0  0  0  0  0  0  0  0
   36.0320   31.0350   31.7110 C   0  0  0  0  0  0  0  0  0  0  0  0
   36.4900   32.4910   31.3880 C   0  0  0  0  0  0  0  0  0  0  0  0
   38.1250   33.8740   30.2110 C   0  0  0  0  0  0  0  0  0  0  0  0
   36.1290   34.7610   31.3440 O   0  0  0  0  0  0  0  0  0  0  0  0
   40.3980   32.8230   27.7670 N   0  0  0  0  0  0  0  0  0  0  0  0
   34.3040   32.0210   32.9190 C   0  0  0  0  0  0  0  0  0  0  0  0
   35.6910   33.5240   31.6110 C   0  0  0  0  0  0  0  0  0  0  0  0
   37.6930   32.5400   30.5510 C   0  0  0  0  0  0  0  0  0  0  0  0
  1  2  1  0
  2 13  2  0
  3  7  2  0
  3  5  1  0
  4 12  1  0
  5 15  1  0
  7 10  1  0
  8  6  1  0
  9 15  1  0
  9 14  1  0
  9  8  1  0
 10 15  2  0
 12  3  1  0
 13  6  1  0
 14 11  1  0
 14  2  1  0
M  END
$$$$

     RDKit          3D

 14 15  0  0  0  0  0  0  0  0999 V2000
   39.5550   32.4970   28.2940 N   0  0  0  0  0  0  0  0  0  0  0  0
   40.4270   32.6840   27.4380 N   0  0  0  0  0  0  0  0  0  0  0  0
   38.9500   33.5520   28.6970 C   0  0  0  0  0  0  0  0  0  0  0  0
   39.5090   34.6060   27.9980 C   0  0  0  0  0  0  0  0  0  0  0  0
   41.0210   35.7440   26.7230 N   0  0  0  0  0  0  0  0  0  0  0  0
   35.9420   33.7840   30.9680 C   0  0  0  0  0  0  0  0  0  0  0  0
   42.3580   34.0660   27.8420 C   0  0  0  0  0  0  0  0  0  0  0  0
   40.7660   34.2520   27.2470 C   0  0  0  0  0  0  0  0  0  0  0  0
   41.2510   37.8670   26.5180 O   0  0  0  0  0  0  0  0  0  0  0  0
   37.9140   33.4630   29.6400 C   0  0  0  0  0  0  0  0  0  0  0  0
   39.3720   37.1460   27.6350 C   0  0  0  0  0  0  0  0  0  0  0  0
   37.3830   33.3010   30.8070 C   0  0  0  0  0  0  0  0  0  0  0  0
   38.7130   35.8190   27.9210 C   0  0  0  0  0  0  0  0  0  0  0  0
   40.7230   36.7800   26.8730 C   0  0  0  0  0  0  0  0  0  0  0  0
  1  3  1  0
  2  1  1  0
  3 10  2  0
  4 13  1  0
  4  3  1  0
  5 14  1  0
  5  8  1  0
  8  2  1  0
  8  7  1  0
  8  4  1  0
  9 14  2  0
 10 12  2  0
 11 13  1  0
 12  6  1  0
 14 11  1  0
M  END
$$$$

     RDKit          3D

 25 26  0  0  0  0  0  0  0  0999 V2000
   39.0900   30.6750   32.3010 C   0  0  0  0  0  0  0  0  0  0  0  0
   39.2590   34.7600   28.7390 C   0  0  0  0  0  0  0  0  0  0  0  0
   36.4690   31.6470   33.0090 C   0  0  0  0  0  0  0  0  0  0  0  0
   41.1930   35.4700   26.8850 C   0  0  0  0  0  0  0  0  0  0  0  0
   32.6500   31.7030   34.5170 C   0  0  0  0  0  0  0  0  0  0  0  0
   39.8260   37.2670   26.1430 O   0  0  0  0  0  0  0  0  0  0  0  0
   34.3360   32.4480   33.6560 C   0  0  0  0  0  0  0  0  0  0  0  0
   42.5140   37.0990   25.3880 C   0  0  0  0  0  0  0  0  0  0  0  0
   33.1470   33.1000   33.2280 O   0  0  0  0  0  0  0  0  0  0  0  0
   41.2280   34.2380   27.5390 C   0  0  0  0  0  0  0  0  0  0  0  0
   39.0810   35.9080   27.9650 C   0  0  0  0  0  0  0  0  0  0  0  0
   38.3620   31.6980   31.3290 C   0  0  0  0  0  0  0  0  0  0  0  0
   39.5990   38.1080   25.1230 N   0  0  0  0  0  0  0  0  0  0  0  0
   40.0550   36.2350   27.0430 C   0  0  0  0  0  0  0  0  0  0  0  0
   37.4270   32.4640   32.2010 C   0  0  0  0  0  0  0  0  0  0  0  0
   31.1590   33.3670   35.1510 C   0  0  0  0  0  0  0  0  0  0  0  0
   38.1380   34.2610   29.6130 C   0  0  0  0  0  0  0  0  0  0  0  0
   42.2710   35.8630   26.1220 N   0  0  0  0  0  0  0  0  0  0  0  0
   35.4360   32.6950   33.1220 O   0  0  0  0  0  0  0  0  0  0  0  0
   38.4030   32.7230   30.1210 C   0  0  0  0  0  0  0  0  0  0  0  0
   37.1180   34.8210   29.9540 O   0  0  0  0  0  0  0  0  0  0  0  0
   40.3040   33.8700   28.5050 C   0  0  0  0  0  0  0  0  0  0  0  0
   32.2560   32.8330   34.2080 C   0  0  0  0  0  0  0  0  0  0  0  0
   34.0870   31.7620   34.6780 N   0  0  0  0  0  0  0  0  0  0  0  0
   43.1630   34.8910   25.5850 C   0  0  0  0  0  0  0  0  0  0  0  0
  2 17  1  0
  3 19  1  0
  4 14  2  0
  4 10  1  0
  5 24  1  0
  6 14  1  0
  7 24  2  0
  8 18  1  0
  9  7  1  0
  9 23  1  0
 10 22  2  0
 11  2  2  0
 12 15  1  0
 12  1  1  0
 13  6  1  0
 14 11  1  0
 15  3  1  0
 17 21  2  0
 17 20  1  0
 18  4  1  0
 19  7  1  0
 20 12  1  0
 22  2  1  0
 23  5  1  0
 23 16  1  0
 25 18  1  0
M  END
$$$$

     RDKit          3D

  7  6  0  0  0  0  0  0  0  0999 V2000
   44.2730   36.6230   24.9770 O   0  0  0  0  0  0  0  0  0  0  0  0
   40.7340   34.2470   23.9170 C   0  0  0  0  0  0  0  0  0  0  0  0
   42.6020   35.0390   25.5300 C   0  0  0  0  0  0  0  0  0  0  0  0
   41.0180   33.5860   26.5230 C   0  0  0  0  0  0  0  0  0  0  0  0
   41.5820   34.1320   25.1970 C   0  0  0  0  0  0  0  0  0  0  0  0
   43.1190   36.3090   24.8880 C   0  0  0  0  0  0  0  0  0  0  0  0
   42.0760   37.0810   24.4900 O   0  0  0  0  0  0  0  0  0  0  0  0
  2  5  1  0
  5  3  1  0
  5  4  1  0
  6  1  1  0
  6  3  1  0
  7  6  2  0
M  END
$$$$

     RDKit          3D

 11 11  0  0  0  0  0  0  0  0999 V2000
   37.2550   36.4480   27.5020 O   0  0  0  0  0  0  0  0  0  0  0  0
   40.1380   34.2760   27.7410 C   0  0  0  0  0  0  0  0  0  0  0  0
   41.9080   35.5370   26.7130 C   0  0  0  0  0  0  0  0  0  0  0  0
   37.8710   35.4630   27.9770 C   0  0  0  0  0  0  0  0  0  0  0  0
   39.7240   33.1220   28.2170 O   0  0  0  0  0  0  0  0  0  0  0  0
   37.3460   34.5230   28.6220 O   0  0  0  0  0  0  0  0  0  0  0  0
   39.8000   36.5670   26.9370 C   0  0  0  0  0  0  0  0  0  0  0  0
   43.5960   35.9500   26.8660 Cl  0  0  0  0  0  0  0  0  0  0  0  0
   39.3030   35.4350   27.5860 C   0  0  0  0  0  0  0  0  0  0  0  0
   41.0220   36.5420   26.3610 C   0  0  0  0  0  0  0  0  0  0  0  0
   41.4480   34.3470   27.2360 C   0  0  0  0  0  0  0  0  0  0  0  0
  1  4  2  0
  2  5  1  0
  3  8  1  0
  3 11  1  0
  4  6  1  0
  7  9  2  0
  9  2  1  0
  9  4  1  0
 10  3  2  0
 10  7  1  0
 11  2  2  0
M  END
$$$$

     RDKit          3D

 12 13  0  0  0  0  0  0  0  0999 V2000
   40.3660   32.9640   28.0740 C   0  0  0  0  0  0  0  0  0  0  0  0
   41.6750   36.8370   26.7920 O   0  0  0  0  0  0  0  0  0  0  0  0
   39.4500   33.6100   28.8720 N   0  0  0  0  0  0  0  0  0  0  0  0
   40.5430   36.4770   27.3110 C   0  0  0  0  0  0  0  0  0  0  0  0
   38.6170   35.7200   29.1390 N   0  0  0  0  0  0  0  0  0  0  0  0
   40.4330   35.1680   27.7480 C   0  0  0  0  0  0  0  0  0  0  0  0
   40.4630   31.6640   28.0040 O   0  0  0  0  0  0  0  0  0  0  0  0
   38.6020   32.8060   29.7830 C   0  0  0  0  0  0  0  0  0  0  0  0
   38.2800   36.9060   28.2690 C   0  0  0  0  0  0  0  0  0  0  0  0
   39.4700   34.9180   28.8120 C   0  0  0  0  0  0  0  0  0  0  0  0
   41.0240   34.0040   27.4290 N   0  0  0  0  0  0  0  0  0  0  0  0
   39.4690   37.4860   27.5490 C   0  0  0  0  0  0  0  0  0  0  0  0
  1  3  1  0
  3  8  1  0
  4  2  1  0
  4 12  1  0
  4  6  1  0
  6 10  2  0
  7  1  2  0
  9  5  1  0
 10  3  1  0
 10  5  1  0
 11  6  1  0
 11  1  1  0
 12  9  1  0
M  END
$$$$

     RDKit          3D

 12 12  0  0  0  0  0  0  0  0999 V2000
   41.5730   33.3290   26.2780 O   0  0  0  0  0  0  0  0  0  0  0  0
   40.4900   35.3850   25.6120 C   0  0  0  0  0  0  0  0  0  0  0  0
   38.9150   37.2260   26.4030 O   0  0  0  0  0  0  0  0  0  0  0  0
   41.1600   35.3980   26.9700 C   0  0  0  0  0  0  0  0  0  0  0  0
   39.7540   37.6970   25.5710 C   0  0  0  0  0  0  0  0  0  0  0  0
   40.7260   36.7420   24.9500 C   0  0  0  0  0  0  0  0  0  0  0  0
   41.7090   36.3300   27.5070 O   0  0  0  0  0  0  0  0  0  0  0  0
   40.8370   36.6180   23.4400 C   0  0  0  0  0  0  0  0  0  0  0  0
   41.0330   34.0680   25.1060 C   0  0  0  0  0  0  0  0  0  0  0  0
   41.1480   33.9720   27.3930 C   0  0  0  0  0  0  0  0  0  0  0  0
   40.5910   33.6510   28.4160 O   0  0  0  0  0  0  0  0  0  0  0  0
   39.8640   38.9470   25.3640 O   0  0  0  0  0  0  0  0  0  0  0  0
  1 10  1  0
  2  6  1  0
  2  4  1  0
  4 10  1  0
  4  7  2  0
  5  3  1  0
  6  8  1  0
  6  5  1  0
  9  2  1  0
  9  1  1  0
 10 11  2  0
 12  5  2  0
M  END
$$$$

     RDKit          3D

 10 10  0  0  0  0  0  0  0  0999 V2000
   39.9870   32.8610   28.6260 C   0  0  0  0  0  0  0  0  0  0  0  0
   40.1310   35.3700   28.0860 C   0  0  0  0  0  0  0  0  0  0  0  0
   38.3910   34.6450   29.3910 C   0  0  0  0  0  0  0  0  0  0  0  0
   41.7280   33.7070   26.9570 C   0  0  0  0  0  0  0  0  0  0  0  0
   37.1850   34.8330   29.6880 O   0  0  0  0  0  0  0  0  0  0  0  0
   40.9840   33.7930   25.7620 O   0  0  0  0  0  0  0  0  0  0  0  0
   40.8720   34.0530   28.1790 C   0  0  0  0  0  0  0  0  0  0  0  0
   41.0130   36.4300   27.8960 O   0  0  0  0  0  0  0  0  0  0  0  0
   39.4420   35.6630   29.4000 C   0  0  0  0  0  0  0  0  0  0  0  0
   38.8300   33.4260   29.2480 N   0  0  0  0  0  0  0  0  0  0  0  0
  1 10  1  0
  2  8  1  0
  2  7  1  0
  2  9  1  0
  3  9  1  0
  3  5  2  0
  6  4  1  0
  7  4  1  0
  7  1  1  0
 10  3  1  0
M  END
$$$$

     RDKit          3D

 31 33  0  0  0  0  0  0  0  0999 V2000
   35.6380   31.6900   33.1670 C   0  0  0  0  0  0  0  0  0  0  0  0
   41.8720   34.0530   27.7530 C   0  0  0  0  0  0  0  0  0  0  0  0
   40.5450   37.6030   27.2130 S   0  0  0  0  0  0  0  0  0  0  0  0
   41.3860   40.0570   25.1230 O   0  0  0  0  0  0  0  0  0  0  0  0
   36.3730   31.7370   31.8870 C   0  0  0  0  0  0  0  0  0  0  0  0
   39.9040   33.3130   29.0370 C   0  0  0  0  0  0  0  0  0  0  0  0
   43.1050   39.9870   27.0720 C   0  0  0  0  0  0  0  0  0  0  0  0
   33.8410   32.0860   34.6720 C   0  0  0  0  0  0  0  0  0  0  0  0
   35.1950   30.2490   35.0520 C   0  0  0  0  0  0  0  0  0  0  0  0
   40.8320   34.4700   28.7740 C   0  0  0  0  0  0  0  0  0  0  0  0
   45.6500   42.4500   26.4410 O   0  0  0  0  0  0  0  0  0  0  0  0
   34.5520   32.4360   33.5390 C   0  0  0  0  0  0  0  0  0  0  0  0
   37.4600   32.6890   31.8870 N   0  0  0  0  0  0  0  0  0  0  0  0
   43.1040   36.3160   28.0830 C   0  0  0  0  0  0  0  0  0  0  0  0
   43.0560   34.9730   27.4130 C   0  0  0  0  0  0  0  0  0  0  0  0
   34.3370   31.1350   35.5940 C   0  0  0  0  0  0  0  0  0  0  0  0
   38.9570   33.5680   30.1990 C   0  0  0  0  0  0  0  0  0  0  0  0
   44.9900   41.2570   26.2250 C   0  0  0  0  0  0  0  0  0  0  0  0
   31.1450   34.4480   35.4540 C   0  0  0  0  0  0  0  0  0  0  0  0
   32.3310   34.0900   33.5740 C   0  0  0  0  0  0  0  0  0  0  0  0
   43.0200   38.5820   29.0850 C   0  0  0  0  0  0  0  0  0  0  0  0
   42.5900   37.0920   29.1270 C   0  0  0  0  0  0  0  0  0  0  0  0
   38.5760   32.3440   30.9780 C   0  0  0  0  0  0  0  0  0  0  0  0
   42.2980   37.3140   27.6500 C   0  0  0  0  0  0  0  0  0  0  0  0
   32.3400   33.7230   35.0830 N   0  0  0  0  0  0  0  0  0  0  0  0
   43.0200   38.6460   27.6430 N   0  0  0  0  0  0  0  0  0  0  0  0
   32.8660   32.7520   35.3900 N   0  0  0  0  0  0  0  0  0  0  0  0
   35.6250   29.0030   35.8470 C   0  0  0  0  0  0  0  0  0  0  0  0
   35.7130   30.4990   33.7620 C   0  0  0  0  0  0  0  0  0  0  0  0
   42.7960   39.8570   25.4290 C   0  0  0  0  0  0  0  0  0  0  0  0
   44.1870   40.7710   27.2870 O   0  0  0  0  0  0  0  0  0  0  0  0
  1  5  1  0
  1 12  1  0
  1 29  1  0
  2 10  1  0
  4 30  1  0
  6 17  1  0
  7 30  1  0
  7 31  1  0
  7 26  1  0
  8 27  1  0
  8 16  1  0
  9 16  1  0
  9 28  1  0
 10  6  1  0
 12  8  2  0
 13  5  1  0
 14 15  1  0
 14 22  1  0
 15  2  2  3
 17 23  1  0
 18 11  1  0
 18 31  1  0
 20 25  1  0
 22 21  1  0
 23 13  1  0
 24  3  1  0
 24 14  1  0
 24 22  1  0
 25 27  1  0
 25 19  1  0
 26 24  1  0
 26 21  1  0
 29  9  1  0
M  END
$$$$

     RDKit          3D

  7  7  0  0  0  0  0  0  0  0999 V2000
   43.2090   35.8170   24.9560 O   0  0  0  0  0  0  0  0  0  0  0  0
   40.8880   34.7440   23.9100 C   0  0  0  0  0  0  0  0  0  0  0  0
   42.7030   36.3400   27.7920 C   0  0  0  0  0  0  0  0  0  0  0  0
   42.8870   36.0060   26.3730 N   0  0  0  0  0  0  0  0  0  0  0  0
   42.4100   34.9460   25.8430 C   0  0  0  0  0  0  0  0  0  0  0  0
   39.9860   34.5320   26.4570 C   0  0  0  0  0  0  0  0  0  0  0  0
   41.0270   34.8750   25.4140 C   0  0  0  0  0  0  0  0  0  0  0  0
  1  5  1  0
  1  4  1  0
  2  7  1  0
  4  3  1  0
  5  7  1  0
  5  4  1  0
  7  6  1  0
M  END
$$$$

     RDKit          3D

 10 10  0  0  0  0  0  0  0  0999 V2000
   38.8800   37.7170   28.3110 N   0  0  0  0  0  0  0  0  0  0  0  0
   38.6150   36.5900   27.9280 C   0  0  0  0  0  0  0  0  0  0  0  0
   40.9320   35.6850   28.2810 C   0  0  0  0  0  0  0  0  0  0  0  0
   37.4180   36.4820   27.6390 O   0  0  0  0  0  0  0  0  0  0  0  0
   41.6640   34.3990   28.2150 C   0  0  0  0  0  0  0  0  0  0  0  0
   39.5950   35.5030   27.5760 C   0  0  0  0  0  0  0  0  0  0  0  0
   41.4290   32.5460   26.8560 O   0  0  0  0  0  0  0  0  0  0  0  0
   40.9690   33.6430   27.2720 C   0  0  0  0  0  0  0  0  0  0  0  0
   42.7580   34.0830   28.7410 O   0  0  0  0  0  0  0  0  0  0  0  0
   39.7480   34.1590   27.1130 N   0  0  0  0  0  0  0  0  0  0  0  0
  2  1  1  0
  4  2  2  0
  5  3  1  0
  5  9  2  0
  6  2  1  0
  6  3  1  0
  7  8  2  0
  8  5  1  0
 10  8  1  0
 10  6  2  0
M  END
$$$$

     RDKit          3D

 20 21  0  0  0  0  0  0  0  0999 V2000
   37.8250   32.5410   31.0080 C   0  0  0  0  0  0  0  0  0  0  0  0
   34.2590   35.8960   30.5070 C   0  0  0  0  0  0  0  0  0  0  0  0
   40.3070   33.5530   27.9910 C   0  0  0  0  0  0  0  0  0  0  0  0
   35.1080   33.3270   31.7150 O   0  0  0  0  0  0  0  0  0  0  0  0
   38.9920   32.3870   30.2230 N   0  0  0  0  0  0  0  0  0  0  0  0
   37.4910   34.5970   29.6540 C   0  0  0  0  0  0  0  0  0  0  0  0
   41.6740   37.6850   28.6780 C   0  0  0  0  0  0  0  0  0  0  0  0
   39.9290   35.8940   27.0960 C   0  0  0  0  0  0  0  0  0  0  0  0
   39.7020   34.4780   27.0780 N   0  0  0  0  0  0  0  0  0  0  0  0
   39.8720   31.3020   28.5760 O   0  0  0  0  0  0  0  0  0  0  0  0
   37.5180   31.6750   32.1940 C   0  0  0  0  0  0  0  0  0  0  0  0
   35.8280   34.0500   30.9650 C   0  0  0  0  0  0  0  0  0  0  0  0
   35.5450   35.2560   30.3540 N   0  0  0  0  0  0  0  0  0  0  0  0
   42.1540   36.4880   27.9180 N   0  0  0  0  0  0  0  0  0  0  0  0
   38.5230   34.3700   29.0400 N   0  0  0  0  0  0  0  0  0  0  0  0
   41.4210   36.0450   26.7300 C   0  0  0  0  0  0  0  0  0  0  0  0
   41.1180   32.7830   27.2340 O   0  0  0  0  0  0  0  0  0  0  0  0
   39.2650   32.8470   28.8910 C   0  0  0  0  0  0  0  0  0  0  0  0
   36.6340   35.6510   29.5520 N   0  0  0  0  0  0  0  0  0  0  0  0
   37.0650   33.6210   30.5760 C   0  0  0  0  0  0  0  0  0  0  0  0
  1 11  1  0
  3 17  1  0
  3 18  1  0
  5  1  1  0
  6 20  1  0
  9  8  1  0
  9  3  1  0
 12  4  2  0
 13  2  1  0
 13 12  1  0
 14  7  1  0
 15  6  2  0
 16  8  1  0
 16 14  1  0
 18 10  1  0
 18 15  1  0
 18  5  1  0
 19  6  1  0
 19 13  1  0
 20 12  1  0
 20  1  2  0
M  END
$$$$

     RDKit          3D

 17 18  0  0  0  0  0  0  0  0999 V2000
   40.2480   34.1880   28.1110 N   0  0  0  0  0  0  0  0  0  0  0  0
   35.1470   31.8510   33.1970 O   0  0  0  0  0  0  0  0  0  0  0  0
   40.3570   35.5280   27.4890 N   0  0  0  0  0  0  0  0  0  0  0  0
   39.1200   32.5090   30.2920 C   0  0  0  0  0  0  0  0  0  0  0  0
   38.9410   37.2440   26.3350 C   0  0  0  0  0  0  0  0  0  0  0  0
   40.2250   37.7270   25.4370 C   0  0  0  0  0  0  0  0  0  0  0  0
   37.6940   37.7750   25.8670 C   0  0  0  0  0  0  0  0  0  0  0  0
   36.5660   33.1990   30.9840 C   0  0  0  0  0  0  0  0  0  0  0  0
   38.9120   34.1570   28.4170 C   0  0  0  0  0  0  0  0  0  0  0  0
   38.2270   35.5070   28.4130 C   0  0  0  0  0  0  0  0  0  0  0  0
   37.1890   33.8960   30.0360 N   0  0  0  0  0  0  0  0  0  0  0  0
   38.5430   31.8980   31.3830 C   0  0  0  0  0  0  0  0  0  0  0  0
   37.1530   31.1560   33.9390 N   0  0  0  0  0  0  0  0  0  0  0  0
   38.4150   33.5350   29.6810 C   0  0  0  0  0  0  0  0  0  0  0  0
   39.1040   36.0540   27.2270 C   0  0  0  0  0  0  0  0  0  0  0  0
   36.3140   31.7760   32.9860 C   0  0  0  0  0  0  0  0  0  0  0  0
   37.1890   32.2690   31.7900 C   0  0  0  0  0  0  0  0  0  0  0  0
  1  9  1  0
  3  1  1  0
  4 12  1  0
  6  5  1  0
  7  5  1  0
  8 17  1  0
  9 14  1  0
 10  9  1  0
 11  8  2  0
 12 17  2  0
 14 11  1  0
 14  4  2  0
 15  5  1  0
 15  3  1  0
 15 10  1  0
 16  2  2  0
 16 13  1  0
 17 16  1  0
M  END
$$$$

     RDKit          3D

 17 18  0  0  0  0  0  0  0  0999 V2000
   36.9720   35.4660   28.7810 C   0  0  0  0  0  0  0  0  0  0  0  0
   42.5760   37.4470   26.6730 C   0  0  0  0  0  0  0  0  0  0  0  0
   41.7520   36.7470   27.6240 N   0  0  0  0  0  0  0  0  0  0  0  0
   35.6160   35.6580   29.2450 C   0  0  0  0  0  0  0  0  0  0  0  0
   37.5000   34.4640   29.6520 C   0  0  0  0  0  0  0  0  0  0  0  0
   36.9400   33.3620   31.5980 N   0  0  0  0  0  0  0  0  0  0  0  0
   40.3050   35.1180   28.4370 O   0  0  0  0  0  0  0  0  0  0  0  0
   36.6100   34.1580   30.5660 C   0  0  0  0  0  0  0  0  0  0  0  0
   38.1600   32.8090   31.6800 C   0  0  0  0  0  0  0  0  0  0  0  0
   40.8460   34.8370   26.1770 O   0  0  0  0  0  0  0  0  0  0  0  0
   34.4320   34.1170   31.1980 C   0  0  0  0  0  0  0  0  0  0  0  0
   35.4720   34.6950   30.3470 N   0  0  0  0  0  0  0  0  0  0  0  0
   38.7100   33.7640   29.6730 C   0  0  0  0  0  0  0  0  0  0  0  0
   39.0740   33.0080   30.7480 C   0  0  0  0  0  0  0  0  0  0  0  0
   42.6110   34.4640   27.8190 C   0  0  0  0  0  0  0  0  0  0  0  0
   39.7350   33.7450   28.5030 C   0  0  0  0  0  0  0  0  0  0  0  0
   41.3520   35.3230   27.4310 C   0  0  0  0  0  0  0  0  0  0  0  0
  1  4  2  0
  1  5  1  0
  2  3  1  0
  4 12  1  0
  5 13  2  0
  5  8  1  0
  6  9  1  0
  7 16  1  0
  8  6  2  0
 10 17  1  0
 12  8  1  0
 12 11  1  0
 13 14  1  0
 14  9  2  0
 16 13  1  0
 17  3  1  0
 17 15  1  0
 17  7  1  0
M  END
$$$$

     RDKit          3D

  6  6  0  0  0  0  0  0  0  0999 V2000
   43.0320   36.4280   26.9490 C   0  0  0  0  0  0  0  0  0  0  0  0
   43.0780   35.8150   25.5080 N   0  0  0  0  0  0  0  0  0  0  0  0
   41.4660   34.3890   26.2440 C   0  0  0  0  0  0  0  0  0  0  0  0
   41.5660   36.4130   27.4350 C   0  0  0  0  0  0  0  0  0  0  0  0
   42.3180   34.9960   25.1030 C   0  0  0  0  0  0  0  0  0  0  0  0
   40.6210   35.5090   26.5960 C   0  0  0  0  0  0  0  0  0  0  0  0
  1  4  1  0
  2  1  1  0
  3  6  1  0
  5  2  1  0
  5  3  1  0
  6  4  1  0
M  END
$$$$

     RDKit          3D

 12 12  0  0  0  0  0  0  0  0999 V2000
   39.5630   34.7450   28.6390 N   0  0  0  0  0  0  0  0  0  0  0  0
   37.9600   33.3480   29.9640 C   0  0  0  0  0  0  0  0  0  0  0  0
   36.1940   33.9760   31.4370 C   0  0  0  0  0  0  0  0  0  0  0  0
   37.2280   31.8960   31.8560 C   0  0  0  0  0  0  0  0  0  0  0  0
   37.4310   30.7360   32.5240 O   0  0  0  0  0  0  0  0  0  0  0  0
   39.2980   32.4470   28.2870 O   0  0  0  0  0  0  0  0  0  0  0  0
   37.0460   34.2660   30.3500 C   0  0  0  0  0  0  0  0  0  0  0  0
   37.9630   32.2190   30.7160 C   0  0  0  0  0  0  0  0  0  0  0  0
   36.3000   32.7700   32.2340 C   0  0  0  0  0  0  0  0  0  0  0  0
   35.5590   32.4540   33.3430 O   0  0  0  0  0  0  0  0  0  0  0  0
   39.0520   33.4500   28.9000 C   0  0  0  0  0  0  0  0  0  0  0  0
   38.8670   35.7100   27.8130 C   0  0  0  0  0  0  0  0  0  0  0  0
  1 11  1  0
  2  7  2  0
  2  8  1  0
  3  9  2  0
  4  9  1  0
  4  5  1  0
  6 11  2  0
  7  3  1  0
  8  4  2  0
  9 10  1  0
 11  2  1  0
 12  1  1  0
M  END
$$$$

     RDKit          3D

 10 11  0  0  0  0  0  0  0  0999 V2000
   39.6130   36.3870   27.6240 C   0  0  0  0  0  0  0  0  0  0  0  0
   41.9530   34.9250   26.6880 C   0  0  0  0  0  0  0  0  0  0  0  0
   41.5120   34.7890   28.1450 C   0  0  0  0  0  0  0  0  0  0  0  0
   42.7500   34.0610   25.6860 O   0  0  0  0  0  0  0  0  0  0  0  0
   42.8200   35.4420   27.8220 O   0  0  0  0  0  0  0  0  0  0  0  0
   40.6330   34.2450   26.9130 C   0  0  0  0  0  0  0  0  0  0  0  0
   40.1240   37.2240   26.9350 C   0  0  0  0  0  0  0  0  0  0  0  0
   39.2370   37.5490   25.9760 O   0  0  0  0  0  0  0  0  0  0  0  0
   40.6520   35.9180   28.8480 C   0  0  0  0  0  0  0  0  0  0  0  0
   41.2910   37.7160   26.7860 O   0  0  0  0  0  0  0  0  0  0  0  0
  1  9  1  0
  2  4  1  0
  2  6  1  0
  2  5  1  0
  2  3  1  0
  3  9  1  0
  5  3  1  0
  6  3  1  0
  7  1  1  0
  8  7  2  0
 10  7  1  0
M  END
$$$$
