
     RDKit          3D

  9  9  0  0  0  0  0  0  0  0999 V2000
   40.2670   37.9190   31.3460 C   0  0  0  0  0  0  0  0  0  0  0  0
   40.3650   43.6210   30.1480 O   0  0  0  0  0  0  0  0  0  0  0  0
   40.6480   40.3010   31.5530 C   0  0  0  0  0  0  0  0  0  0  0  0
   40.0520   41.6560   31.7250 C   0  0  0  0  0  0  0  0  0  0  0  0
   42.0810   41.0420   30.8910 C   0  0  0  0  0  0  0  0  0  0  0  0
   41.8600   39.8600   30.8350 O   0  0  0  0  0  0  0  0  0  0  0  0
   40.4290   42.4150   30.4560 C   0  0  0  0  0  0  0  0  0  0  0  0
   39.6780   39.2400   31.0110 C   0  0  0  0  0  0  0  0  0  0  0  0
   41.3370   41.7800   29.7450 O   0  0  0  0  0  0  0  0  0  0  0  0
  2  7  2  0
  3  8  1  0
  3  4  1  0
  6  5  1  0
  6  3  1  0
  7  4  1  0
  8  1  1  0
  9  7  1  0
  9  5  1  0
M  END
$$$$

     RDKit          3D

 14 14  0  0  0  0  0  0  0  0999 V2000
   40.2020   38.4080   32.6580 C   0  0  0  0  0  0  0  0  0  0  0  0
   39.7230   39.6120   33.3420 C   0  0  0  0  0  0  0  0  0  0  0  0
   38.7640   40.7070   33.1400 N   0  0  0  0  0  0  0  0  0  0  0  0
   39.1650   38.7310   34.4630 C   0  0  0  0  0  0  0  0  0  0  0  0
   39.1440   37.5540   32.1430 C   0  0  0  0  0  0  0  0  0  0  0  0
   41.2330   36.3620   31.5190 O   0  0  0  0  0  0  0  0  0  0  0  0
   37.8680   37.5720   32.8610 C   0  0  0  0  0  0  0  0  0  0  0  0
   40.4040   40.2740   35.7820 C   0  0  0  0  0  0  0  0  0  0  0  0
   36.7040   38.0300   32.0180 C   0  0  0  0  0  0  0  0  0  0  0  0
   37.9270   38.3870   34.0240 N   0  0  0  0  0  0  0  0  0  0  0  0
   39.2700   39.4320   35.6400 N   0  0  0  0  0  0  0  0  0  0  0  0
   39.8760   36.6130   31.1900 C   0  0  0  0  0  0  0  0  0  0  0  0
   40.1110   37.6440   30.1220 O   0  0  0  0  0  0  0  0  0  0  0  0
   40.0730   41.6700   35.9670 N   0  0  0  0  0  0  0  0  0  0  0  0
  1  2  1  0
  2  3  1  0
  2  4  1  0
  4 11  1  0
  5 12  1  0
  5  1  1  0
  5  7  1  0
  7  9  1  0
  7 10  1  0
  8 14  1  0
 10  4  1  0
 11  8  1  0
 12  6  1  0
 13 12  1  0
M  END
$$$$

     RDKit          3D

 11 12  0  0  0  0  0  0  0  0999 V2000
   40.9620   43.0990   29.3860 C   0  0  0  0  0  0  0  0  0  0  0  0
   40.0600   41.9340   29.0560 C   0  0  0  0  0  0  0  0  0  0  0  0
   40.7170   42.6640   31.9540 C   0  0  0  0  0  0  0  0  0  0  0  0
   41.5550   39.6320   29.5690 C   0  0  0  0  0  0  0  0  0  0  0  0
   40.9400   38.5060   30.3070 C   0  0  0  0  0  0  0  0  0  0  0  0
   41.4460   40.3300   32.9690 C   0  0  0  0  0  0  0  0  0  0  0  0
   39.8150   39.0270   31.2660 C   0  0  0  0  0  0  0  0  0  0  0  0
   40.4390   40.5500   29.5300 C   0  0  0  0  0  0  0  0  0  0  0  0
   40.9940   43.6050   30.8030 C   0  0  0  0  0  0  0  0  0  0  0  0
   39.8210   40.4900   30.9380 C   0  0  0  0  0  0  0  0  0  0  0  0
   40.7570   41.1910   31.8970 C   0  0  0  0  0  0  0  0  0  0  0  0
  1  9  1  0
  2  1  1  0
  4  5  1  0
  5  7  1  0
  8  2  1  0
  8  4  1  0
  8 10  1  0
  9  3  1  0
 10  7  1  0
 10 11  1  0
 11  3  1  0
 11  6  1  0
M  END
$$$$

     RDKit          3D

  7  6  0  0  0  0  0  0  0  0999 V2000
   40.0430   40.4730   30.5860 O   0  0  0  0  0  0  0  0  0  0  0  0
   39.2790   37.1300   31.4840 N   0  0  0  0  0  0  0  0  0  0  0  0
   37.9910   38.5460   33.3540 O   0  0  0  0  0  0  0  0  0  0  0  0
   38.2370   39.0840   32.1560 C   0  0  0  0  0  0  0  0  0  0  0  0
   40.2720   39.1940   30.7710 C   0  0  0  0  0  0  0  0  0  0  0  0
   39.3750   38.5160   31.4630 C   0  0  0  0  0  0  0  0  0  0  0  0
   41.1410   38.4550   30.2980 O   0  0  0  0  0  0  0  0  0  0  0  0
  1  5  1  0
  4  3  1  0
  5  6  1  0
  6  2  1  0
  6  4  1  0
  7  5  2  0
M  END
$$$$

     RDKit          3D

 21 21  0  0  0  0  0  0  0  0999 V2000
   34.8710   34.8290   33.6460 C   0  0  0  0  0  0  0  0  0  0  0  0
   28.3300   34.0790   33.4250 C   0  0  0  0  0  0  0  0  0  0  0  0
   41.1670   38.4760   31.2370 C   0  0  0  0  0  0  0  0  0  0  0  0
   37.4250   38.2710   32.6010 C   0  0  0  0  0  0  0  0  0  0  0  0
   30.4650   34.2260   33.7270 C   0  0  0  0  0  0  0  0  0  0  0  0
   34.6640   37.7520   32.5210 O   0  0  0  0  0  0  0  0  0  0  0  0
   40.5630   37.3560   30.8780 C   0  0  0  0  0  0  0  0  0  0  0  0
   42.1180   38.9930   31.8900 F   0  0  0  0  0  0  0  0  0  0  0  0
   39.3900   37.1150   31.6490 C   0  0  0  0  0  0  0  0  0  0  0  0
   30.5170   33.4300   34.9510 O   0  0  0  0  0  0  0  0  0  0  0  0
   39.3070   39.3730   31.9210 C   0  0  0  0  0  0  0  0  0  0  0  0
   29.1990   35.8500   35.0290 F   0  0  0  0  0  0  0  0  0  0  0  0
   40.4870   39.4460   31.5970 C   0  0  0  0  0  0  0  0  0  0  0  0
   36.7510   37.0980   32.2310 N   0  0  0  0  0  0  0  0  0  0  0  0
   29.2360   35.1050   33.7440 C   0  0  0  0  0  0  0  0  0  0  0  0
   35.5360   36.0730   33.7880 O   0  0  0  0  0  0  0  0  0  0  0  0
   38.7560   38.2220   32.0890 C   0  0  0  0  0  0  0  0  0  0  0  0
   33.9140   34.9080   32.4590 C   0  0  0  0  0  0  0  0  0  0  0  0
   31.7350   34.7760   33.5750 C   0  0  0  0  0  0  0  0  0  0  0  0
   35.6020   36.9960   32.8340 C   0  0  0  0  0  0  0  0  0  0  0  0
   32.7040   34.0300   32.7330 C   0  0  0  0  0  0  0  0  0  0  0  0
  1 16  1  0
  3 13  1  0
  3  8  1  0
  5 15  1  0
  5 10  1  0
  6 20  2  0
  7  3  1  0
  7  9  1  0
  9 17  2  0
 11 17  1  0
 13 11  2  0
 14  4  1  0
 14 20  1  0
 15  2  1  0
 15 12  1  0
 17  4  1  0
 18 21  1  0
 18  1  1  0
 19  5  1  0
 20 16  1  0
 21 19  1  0
M  END
$$$$

     RDKit          3D

 23 26  0  0  0  0  0  0  0  0999 V2000
   32.3990   34.9190   32.5700 C   0  0  0  0  0  0  0  0  0  0  0  0
   34.4800   35.3030   34.3090 C   0  0  0  0  0  0  0  0  0  0  0  0
   35.8700   35.1150   34.8170 N   0  0  0  0  0  0  0  0  0  0  0  0
   39.6320   37.6560   33.5000 C   0  0  0  0  0  0  0  0  0  0  0  0
   39.1500   35.2250   35.7360 O   0  0  0  0  0  0  0  0  0  0  0  0
   33.1500   35.2460   34.8590 C   0  0  0  0  0  0  0  0  0  0  0  0
   41.8950   40.4670   32.6750 C   0  0  0  0  0  0  0  0  0  0  0  0
   32.0580   35.0520   33.9310 C   0  0  0  0  0  0  0  0  0  0  0  0
   40.7640   39.8870   33.5290 C   0  0  0  0  0  0  0  0  0  0  0  0
   37.7310   34.2820   32.3270 C   0  0  0  0  0  0  0  0  0  0  0  0
   38.7520   37.1670   32.3180 C   0  0  0  0  0  0  0  0  0  0  0  0
   38.0570   35.9350   33.9110 C   0  0  0  0  0  0  0  0  0  0  0  0
   34.6670   35.6550   33.0100 C   0  0  0  0  0  0  0  0  0  0  0  0
   36.6990   35.7990   34.0290 C   0  0  0  0  0  0  0  0  0  0  0  0
   42.5730   39.3270   32.0440 C   0  0  0  0  0  0  0  0  0  0  0  0
   33.6330   35.3910   32.1050 C   0  0  0  0  0  0  0  0  0  0  0  0
   40.3920   38.6710   32.7800 C   0  0  0  0  0  0  0  0  0  0  0  0
   38.5360   35.7090   32.5360 C   0  0  0  0  0  0  0  0  0  0  0  0
   42.5300   41.5830   33.4840 C   0  0  0  0  0  0  0  0  0  0  0  0
   41.5940   38.1160   32.1270 C   0  0  0  0  0  0  0  0  0  0  0  0
   36.1310   36.2870   32.7850 C   0  0  0  0  0  0  0  0  0  0  0  0
   39.6700   37.1770   34.6720 N   0  0  0  0  0  0  0  0  0  0  0  0
   38.9760   35.9550   34.8090 C   0  0  0  0  0  0  0  0  0  0  0  0
  1  8  1  0
  2  3  1  0
  2  6  1  0
  4 11  1  0
  4 22  1  0
  7 19  1  0
  7  9  1  0
  8  6  2  0
 11 18  1  0
 12 14  1  0
 12 23  1  0
 13  2  2  0
 14 21  1  0
 14  3  1  0
 15 20  1  0
 15  7  1  0
 16  1  2  0
 16 13  1  0
 17 20  1  0
 17  4  1  0
 17  9  1  0
 18 10  1  0
 18 12  1  0
 21 13  1  0
 22 23  1  0
 23  5  2  0
M  END
$$$$

     RDKit          3D

  6  5  0  0  0  0  0  0  0  0999 V2000
   41.3620   41.3350   32.7220 O   0  0  0  0  0  0  0  0  0  0  0  0
   41.4720   40.1980   32.2820 C   0  0  0  0  0  0  0  0  0  0  0  0
   40.9600   39.1810   32.9710 N   0  0  0  0  0  0  0  0  0  0  0  0
   41.6100   40.0770   30.8180 C   0  0  0  0  0  0  0  0  0  0  0  0
   40.9070   39.7350   30.0380 C   0  0  0  0  0  0  0  0  0  0  0  0
   40.2170   40.6030   28.8980 C   0  0  0  0  0  0  0  0  0  0  0  0
  2  1  2  0
  2  3  1  0
  4  2  1  0
  5  4  1  0
  6  5  1  0
M  END
$$$$

     RDKit          3D

 17 17  0  0  0  0  0  0  0  0999 V2000
   36.9380   31.2840   34.7350 C   0  0  0  0  0  0  0  0  0  0  0  0
   36.3660   32.4720   33.8670 C   0  0  0  0  0  0  0  0  0  0  0  0
   38.1400   30.9730   34.5750 O   0  0  0  0  0  0  0  0  0  0  0  0
   38.8020   35.3310   32.8820 C   0  0  0  0  0  0  0  0  0  0  0  0
   34.3500   29.0620   36.6610 C   0  0  0  0  0  0  0  0  0  0  0  0
   36.1300   30.3280   35.6240 C   0  0  0  0  0  0  0  0  0  0  0  0
   34.7730   30.0660   35.8180 C   0  0  0  0  0  0  0  0  0  0  0  0
   37.3300   32.9990   32.7820 C   0  0  0  0  0  0  0  0  0  0  0  0
   40.5640   36.1670   31.3280 N   0  0  0  0  0  0  0  0  0  0  0  0
   39.4450   36.3480   32.1520 C   0  0  0  0  0  0  0  0  0  0  0  0
   36.9220   29.4510   36.3180 C   0  0  0  0  0  0  0  0  0  0  0  0
   33.0350   29.4230   37.3790 C   0  0  0  0  0  0  0  0  0  0  0  0
   37.8090   34.4310   33.1580 C   0  0  0  0  0  0  0  0  0  0  0  0
   36.3730   28.5600   37.1980 C   0  0  0  0  0  0  0  0  0  0  0  0
   35.1010   28.3080   37.3130 N   0  0  0  0  0  0  0  0  0  0  0  0
   39.8220   38.5950   31.1570 C   0  0  0  0  0  0  0  0  0  0  0  0
   39.2100   37.8100   32.3830 C   0  0  0  0  0  0  0  0  0  0  0  0
  1  6  1  0
  2  1  1  0
  3  1  2  0
  4 13  2  0
  5 15  1  0
  5 12  1  0
  6  7  1  0
  6 11  2  0
  7  5  2  0
  8 13  1  0
  8  2  1  0
  9 10  1  0
 10 17  1  0
 10  4  2  0
 11 14  1  0
 14 15  2  0
 16 17  1  0
M  END
$$$$

     RDKit          3D

 16 17  0  0  0  0  0  0  0  0999 V2000
   33.5760   36.0870   32.4130 C   0  0  0  0  0  0  0  0  0  0  0  0
   35.4370   35.8360   33.9260 C   0  0  0  0  0  0  0  0  0  0  0  0
   34.9330   36.1390   32.7340 C   0  0  0  0  0  0  0  0  0  0  0  0
   41.6560   37.7190   32.7510 C   0  0  0  0  0  0  0  0  0  0  0  0
   32.7330   35.3130   33.2010 C   0  0  0  0  0  0  0  0  0  0  0  0
   34.6060   35.0220   34.6760 C   0  0  0  0  0  0  0  0  0  0  0  0
   39.3090   38.6760   33.7170 C   0  0  0  0  0  0  0  0  0  0  0  0
   40.1960   39.6640   33.0000 C   0  0  0  0  0  0  0  0  0  0  0  0
   42.5830   39.9930   32.7340 C   0  0  0  0  0  0  0  0  0  0  0  0
   37.8680   36.8510   32.6810 C   0  0  0  0  0  0  0  0  0  0  0  0
   40.3590   37.3010   32.0240 C   0  0  0  0  0  0  0  0  0  0  0  0
   41.5460   39.0800   33.2260 N   0  0  0  0  0  0  0  0  0  0  0  0
   32.5010   33.8310   35.0030 N   0  0  0  0  0  0  0  0  0  0  0  0
   39.3010   37.2750   33.1180 C   0  0  0  0  0  0  0  0  0  0  0  0
   37.0470   36.4960   33.9190 N   0  0  0  0  0  0  0  0  0  0  0  0
   33.3090   34.6700   34.3110 C   0  0  0  0  0  0  0  0  0  0  0  0
  1  3  2  0
  1  5  1  0
  2  6  2  0
  3  2  1  0
  4 12  1  0
  5 16  2  0
  8 12  1  0
  8  7  1  0
  9 12  1  0
 10 14  1  0
 10 15  1  0
 11  4  1  0
 11 14  1  0
 14  7  1  0
 15  2  1  0
 16  6  1  0
 16 13  1  0
M  END
$$$$

     RDKit          3D

 11 12  0  0  0  0  0  0  0  0999 V2000
   41.6520   38.5120   30.0950 O   0  0  0  0  0  0  0  0  0  0  0  0
   39.9950   41.7690   30.7220 C   0  0  0  0  0  0  0  0  0  0  0  0
   38.9870   40.0390   32.0410 C   0  0  0  0  0  0  0  0  0  0  0  0
   41.0140   40.7250   30.9840 C   0  0  0  0  0  0  0  0  0  0  0  0
   40.9420   40.7190   32.5020 C   0  0  0  0  0  0  0  0  0  0  0  0
   39.5110   38.8320   31.2720 C   0  0  0  0  0  0  0  0  0  0  0  0
   39.3610   37.5250   31.1170 C   0  0  0  0  0  0  0  0  0  0  0  0
   38.7810   41.3010   31.4890 C   0  0  0  0  0  0  0  0  0  0  0  0
   39.9260   40.2640   33.1460 O   0  0  0  0  0  0  0  0  0  0  0  0
   38.9460   36.5000   31.1830 O   0  0  0  0  0  0  0  0  0  0  0  0
   40.5790   39.4130   30.3980 C   0  0  0  0  0  0  0  0  0  0  0  0
  2  8  1  0
  3  8  1  0
  3  9  1  0
  4  2  1  0
  4  5  1  0
  5  9  1  0
  6  3  1  0
  7 10  2  0
  7  6  2  0
 11  1  1  0
 11  4  1  0
 11  6  1  0
M  END
$$$$

     RDKit          3D

  9  8  0  0  0  0  0  0  0  0999 V2000
   39.4660   36.3030   31.5980 N   0  0  0  0  0  0  0  0  0  0  0  0
   38.1950   39.0850   33.5820 C   0  0  0  0  0  0  0  0  0  0  0  0
   38.8530   36.8570   32.6470 N   0  0  0  0  0  0  0  0  0  0  0  0
   39.7800   39.9170   31.8280 C   0  0  0  0  0  0  0  0  0  0  0  0
   37.9030   37.7630   32.8360 C   0  0  0  0  0  0  0  0  0  0  0  0
   36.7430   37.4390   32.5160 O   0  0  0  0  0  0  0  0  0  0  0  0
   40.0870   40.4960   34.2130 C   0  0  0  0  0  0  0  0  0  0  0  0
   40.8420   39.9230   31.0860 O   0  0  0  0  0  0  0  0  0  0  0  0
   39.6040   39.4690   33.1280 C   0  0  0  0  0  0  0  0  0  0  0  0
  1  3  1  0
  3  5  1  0
  4  9  1  0
  5  2  1  0
  6  5  2  0
  8  4  1  0
  9  2  1  0
  9  7  1  0
M  END
$$$$

     RDKit          3D

  9  8  0  0  0  0  0  0  0  0999 V2000
   32.7580   35.4710   33.2120 O   0  0  0  0  0  0  0  0  0  0  0  0
   34.0830   36.2220   34.7870 O   0  0  0  0  0  0  0  0  0  0  0  0
   38.2280   36.9140   33.2890 N   0  0  0  0  0  0  0  0  0  0  0  0
   36.6890   35.6700   33.1580 C   0  0  0  0  0  0  0  0  0  0  0  0
   36.1600   34.8670   33.6260 C   0  0  0  0  0  0  0  0  0  0  0  0
   34.8870   34.1860   33.8900 C   0  0  0  0  0  0  0  0  0  0  0  0
   33.3780   35.3910   34.4250 S   0  0  0  0  0  0  0  0  0  0  0  0
   32.4620   35.0530   35.4800 O   0  0  0  0  0  0  0  0  0  0  0  0
   37.7450   36.3560   32.3990 C   0  0  0  0  0  0  0  0  0  0  0  0
  1  7  1  0
  4  5  1  0
  5  6  1  0
  6  7  1  0
  7  2  1  0
  7  8  1  0
  9  4  1  0
  9  3  1  0
M  END
$$$$

     RDKit          3D

 21 21  0  0  0  0  0  0  0  0999 V2000
   38.3820   41.0240   32.8150 C   0  0  0  0  0  0  0  0  0  0  0  0
   38.8820   31.5960   35.0700 C   0  0  0  0  0  0  0  0  0  0  0  0
   38.1360   32.8540   34.2510 C   0  0  0  0  0  0  0  0  0  0  0  0
   39.7030   41.5470   32.1130 C   0  0  0  0  0  0  0  0  0  0  0  0
   37.7680   42.2390   33.3360 O   0  0  0  0  0  0  0  0  0  0  0  0
   37.7140   35.3250   34.1610 C   0  0  0  0  0  0  0  0  0  0  0  0
   37.7390   36.6160   33.3050 C   0  0  0  0  0  0  0  0  0  0  0  0
   38.7550   38.7650   34.0170 N   0  0  0  0  0  0  0  0  0  0  0  0
   37.7440   33.6210   35.6110 N   0  0  0  0  0  0  0  0  0  0  0  0
   40.7880   40.3940   31.9620 C   0  0  0  0  0  0  0  0  0  0  0  0
   36.5530   30.4640   35.0630 C   0  0  0  0  0  0  0  0  0  0  0  0
   38.2390   32.2230   32.8220 C   0  0  0  0  0  0  0  0  0  0  0  0
   37.5290   34.9390   35.4810 C   0  0  0  0  0  0  0  0  0  0  0  0
   40.0840   38.2200   34.4520 C   0  0  0  0  0  0  0  0  0  0  0  0
   37.7380   34.1350   33.4610 C   0  0  0  0  0  0  0  0  0  0  0  0
   37.9220   30.5020   35.3380 C   0  0  0  0  0  0  0  0  0  0  0  0
   36.5680   38.6880   33.5550 O   0  0  0  0  0  0  0  0  0  0  0  0
   40.3020   42.4830   33.0450 O   0  0  0  0  0  0  0  0  0  0  0  0
   38.6070   29.2950   35.5540 N   0  0  0  0  0  0  0  0  0  0  0  0
   37.6570   38.0740   33.7140 C   0  0  0  0  0  0  0  0  0  0  0  0
   38.6720   40.2000   34.0060 C   0  0  0  0  0  0  0  0  0  0  0  0
  1  5  1  0
  1 21  1  0
  2 16  1  0
  3 12  1  0
  3  2  1  0
  3  9  1  0
  4 10  1  0
  4  1  1  0
  4 18  1  0
  6 13  1  0
  7 20  1  0
  7  6  2  3
  8 14  1  0
 13  9  1  0
 15  6  1  0
 15  3  1  0
 16 11  1  0
 16 19  1  0
 17 20  2  0
 20  8  1  0
 21  8  1  0
M  END
$$$$

     RDKit          3D

  8  7  0  0  0  0  0  0  0  0999 V2000
   37.8330   39.4170   31.8720 O   0  0  0  0  0  0  0  0  0  0  0  0
   41.9070   38.8960   30.4340 C   0  0  0  0  0  0  0  0  0  0  0  0
   41.2640   37.7630   30.4230 O   0  0  0  0  0  0  0  0  0  0  0  0
   41.2590   39.8890   30.9340 C   0  0  0  0  0  0  0  0  0  0  0  0
   39.1760   39.0510   31.7130 C   0  0  0  0  0  0  0  0  0  0  0  0
   39.7170   40.2050   33.7810 O   0  0  0  0  0  0  0  0  0  0  0  0
   39.7980   39.7700   30.5660 C   0  0  0  0  0  0  0  0  0  0  0  0
   40.0880   39.2010   32.9010 C   0  0  0  0  0  0  0  0  0  0  0  0
  2  4  1  0
  3  2  1  0
  5  1  1  0
  5  8  1  0
  7  4  1  0
  7  5  1  0
  8  6  1  0
M  END
$$$$

     RDKit          3D

  7  6  0  0  0  0  0  0  0  0999 V2000
   40.0160   41.0840   28.7040 O   0  0  0  0  0  0  0  0  0  0  0  0
   38.6150   41.1180   30.6930 C   0  0  0  0  0  0  0  0  0  0  0  0
   39.7860   40.8340   29.8810 C   0  0  0  0  0  0  0  0  0  0  0  0
   39.1000   41.5420   31.9650 O   0  0  0  0  0  0  0  0  0  0  0  0
   40.8190   39.9290   30.7030 C   0  0  0  0  0  0  0  0  0  0  0  0
   40.4760   39.0860   31.4690 O   0  0  0  0  0  0  0  0  0  0  0  0
   41.8720   40.1780   30.1450 O   0  0  0  0  0  0  0  0  0  0  0  0
  1  3  2  0
  2  4  1  0
  3  2  1  0
  3  5  1  0
  5  6  1  0
  7  5  2  0
M  END
$$$$

     RDKit          3D

 10 10  0  0  0  0  0  0  0  0999 V2000
   40.3740   40.7370   31.5350 O   0  0  0  0  0  0  0  0  0  0  0  0
   38.7090   39.6440   33.7030 O   0  0  0  0  0  0  0  0  0  0  0  0
   39.3160   37.6100   32.4510 C   0  0  0  0  0  0  0  0  0  0  0  0
   40.8010   36.9980   31.8270 S   0  0  0  0  0  0  0  0  0  0  0  0
   41.6300   38.6200   31.8940 C   0  0  0  0  0  0  0  0  0  0  0  0
   38.5260   35.2960   32.4400 C   0  0  0  0  0  0  0  0  0  0  0  0
   39.2980   39.0660   32.8230 C   0  0  0  0  0  0  0  0  0  0  0  0
   39.3140   34.4540   31.7520 N   0  0  0  0  0  0  0  0  0  0  0  0
   40.4560   39.6290   32.0250 C   0  0  0  0  0  0  0  0  0  0  0  0
   38.1720   36.7960   32.5400 C   0  0  0  0  0  0  0  0  0  0  0  0
  1  9  2  0
  3 10  1  0
  3  7  1  0
  4  5  1  0
  4  3  1  0
  5  9  1  0
  6 10  1  0
  7  2  2  0
  8  6  1  0
  9  7  1  0
M  END
$$$$

     RDKit          3D

 11 11  0  0  0  0  0  0  0  0999 V2000
   41.6300   39.2850   30.6540 C   0  0  0  0  0  0  0  0  0  0  0  0
   40.9440   40.8270   33.4270 C   0  0  0  0  0  0  0  0  0  0  0  0
   42.0760   40.4850   31.2890 C   0  0  0  0  0  0  0  0  0  0  0  0
   40.2700   43.0270   32.3800 O   0  0  0  0  0  0  0  0  0  0  0  0
   40.0900   37.6950   31.5090 N   0  0  0  0  0  0  0  0  0  0  0  0
   40.6500   42.9930   34.7690 O   0  0  0  0  0  0  0  0  0  0  0  0
   40.2400   38.8300   31.7450 C   0  0  0  0  0  0  0  0  0  0  0  0
   39.8560   39.8660   32.3100 C   0  0  0  0  0  0  0  0  0  0  0  0
   41.2540   42.6480   33.3930 P   0  0  0  0  0  0  0  0  0  0  0  0
   42.7000   42.8430   33.2000 O   0  0  0  0  0  0  0  0  0  0  0  0
   42.1890   40.2580   32.8560 C   0  0  0  0  0  0  0  0  0  0  0  0
  1  3  1  0
  1  7  1  0
  2  9  1  0
  3 11  1  0
  4  9  2  0
  5  7  2  0
  7  8  1  0
  8  2  1  0
  9  6  1  0
 10  9  1  0
 11  2  1  0
M  END
$$$$

     RDKit          3D

 19 20  0  0  0  0  0  0  0  0999 V2000
   39.6940   40.2540   32.7430 O   0  0  0  0  0  0  0  0  0  0  0  0
   37.8880   36.9320   32.9680 C   0  0  0  0  0  0  0  0  0  0  0  0
   38.2700   35.6470   32.4920 C   0  0  0  0  0  0  0  0  0  0  0  0
   41.2090   38.9150   30.5510 C   0  0  0  0  0  0  0  0  0  0  0  0
   37.7940   34.4880   33.0910 C   0  0  0  0  0  0  0  0  0  0  0  0
   36.4720   33.5640   36.3370 F   0  0  0  0  0  0  0  0  0  0  0  0
   40.6310   38.1150   31.7730 C   0  0  0  0  0  0  0  0  0  0  0  0
   39.5640   38.8800   32.5790 C   0  0  0  0  0  0  0  0  0  0  0  0
   34.9210   33.4000   34.8400 F   0  0  0  0  0  0  0  0  0  0  0  0
   37.2820   38.9750   31.6910 N   0  0  0  0  0  0  0  0  0  0  0  0
   42.1560   40.1370   30.5400 C   0  0  0  0  0  0  0  0  0  0  0  0
   36.9590   34.5120   34.2220 C   0  0  0  0  0  0  0  0  0  0  0  0
   36.5810   32.3100   34.9330 F   0  0  0  0  0  0  0  0  0  0  0  0
   42.2640   37.9670   30.2640 F   0  0  0  0  0  0  0  0  0  0  0  0
   37.0090   36.9210   34.0540 C   0  0  0  0  0  0  0  0  0  0  0  0
   40.7340   38.2850   33.1170 O   0  0  0  0  0  0  0  0  0  0  0  0
   38.2200   38.2680   32.3980 C   0  0  0  0  0  0  0  0  0  0  0  0
   36.1930   33.3970   34.9590 C   0  0  0  0  0  0  0  0  0  0  0  0
   36.7460   35.7410   34.7380 C   0  0  0  0  0  0  0  0  0  0  0  0
  2 15  1  0
  3  2  2  0
  3  5  1  0
  4 11  1  0
  5 12  2  0
  7  4  1  0
  7  8  1  0
  7 16  1  0
  8  1  1  0
  8 16  1  0
  9 18  1  0
 12 19  1  0
 12 18  1  0
 13 18  1  0
 14  4  1  0
 15 19  2  0
 17 10  1  0
 17  8  1  0
 17  2  1  0
 18  6  1  0
M  END
$$$$

     RDKit          3D

  9  8  0  0  0  0  0  0  0  0999 V2000
   42.2330   41.2270   32.0150 C   0  0  0  0  0  0  0  0  0  0  0  0
   42.1150   42.1950   31.3890 C   0  0  0  0  0  0  0  0  0  0  0  0
   38.7110   39.0110   31.2850 O   0  0  0  0  0  0  0  0  0  0  0  0
   39.7250   38.3430   28.9860 O   0  0  0  0  0  0  0  0  0  0  0  0
   39.5810   39.4330   30.2070 P   0  0  0  0  0  0  0  0  0  0  0  0
   41.5590   39.8590   31.8850 C   0  0  0  0  0  0  0  0  0  0  0  0
   39.2140   40.7940   29.8350 O   0  0  0  0  0  0  0  0  0  0  0  0
   41.2320   39.5190   30.5820 C   0  0  0  0  0  0  0  0  0  0  0  0
   43.0520   41.1670   33.0400 O   0  0  0  0  0  0  0  0  0  0  0  0
  1  9  1  0
  2  1  2  0
  4  5  2  0
  5  8  1  0
  5  3  1  0
  6  1  1  0
  7  5  1  0
  8  6  1  0
M  END
$$$$

     RDKit          3D

  8  8  0  0  0  0  0  0  0  0999 V2000
   39.7180   41.9010   29.8000 C   0  0  0  0  0  0  0  0  0  0  0  0
   39.9970   39.1030   31.7840 N   0  0  0  0  0  0  0  0  0  0  0  0
   41.3220   42.3770   31.5760 C   0  0  0  0  0  0  0  0  0  0  0  0
   40.1450   41.5590   31.1530 C   0  0  0  0  0  0  0  0  0  0  0  0
   42.5900   41.5610   31.3940 C   0  0  0  0  0  0  0  0  0  0  0  0
   43.5980   41.9130   32.4360 C   0  0  0  0  0  0  0  0  0  0  0  0
   42.1310   40.1540   31.4040 C   0  0  0  0  0  0  0  0  0  0  0  0
   40.6270   40.1000   31.2280 C   0  0  0  0  0  0  0  0  0  0  0  0
  4  1  1  0
  4  8  1  0
  4  3  1  0
  5  7  1  0
  5  3  1  0
  5  6  1  0
  8  7  1  0
  8  2  2  0
M  END
$$$$
