
     RDKit          3D

 26 27  0  0  0  0  0  0  0  0999 V2000
   37.0280   30.9870   32.2550 C   0  0  0  0  0  0  0  0  0  0  0  0
   39.0700   37.2920   27.5140 N   0  0  0  0  0  0  0  0  0  0  0  0
   33.9850   30.9140   32.5970 C   0  0  0  0  0  0  0  0  0  0  0  0
   40.9920   38.8310   25.0500 C   0  0  0  0  0  0  0  0  0  0  0  0
   37.4980   32.9320   30.9590 C   0  0  0  0  0  0  0  0  0  0  0  0
   34.8050   30.7920   33.9090 C   0  0  0  0  0  0  0  0  0  0  0  0
   38.3520   34.2110   29.1470 C   0  0  0  0  0  0  0  0  0  0  0  0
   41.0840   36.1590   28.0840 C   0  0  0  0  0  0  0  0  0  0  0  0
   38.9650   32.9890   29.0100 O   0  0  0  0  0  0  0  0  0  0  0  0
   41.4640   36.4180   25.0500 C   0  0  0  0  0  0  0  0  0  0  0  0
   40.4190   35.1500   28.8190 C   0  0  0  0  0  0  0  0  0  0  0  0
   37.1450   34.1300   30.1190 C   0  0  0  0  0  0  0  0  0  0  0  0
   44.0690   38.2750   22.7300 C   0  0  0  0  0  0  0  0  0  0  0  0
   41.6490   38.6000   23.6850 C   0  0  0  0  0  0  0  0  0  0  0  0
   35.1310   32.7150   31.5620 O   0  0  0  0  0  0  0  0  0  0  0  0
   36.4770   32.4270   31.9370 C   0  0  0  0  0  0  0  0  0  0  0  0
   37.0470   30.6840   33.5770 C   0  0  0  0  0  0  0  0  0  0  0  0
   40.8610   37.5070   25.8060 C   0  0  0  0  0  0  0  0  0  0  0  0
   42.8370   36.5450   24.3960 C   0  0  0  0  0  0  0  0  0  0  0  0
   34.3360   31.5530   31.2630 C   0  0  0  0  0  0  0  0  0  0  0  0
   38.4160   36.5120   28.4130 C   0  0  0  0  0  0  0  0  0  0  0  0
   43.0520   37.9800   23.8680 C   0  0  0  0  0  0  0  0  0  0  0  0
   41.5040   39.7640   22.9660 O   0  0  0  0  0  0  0  0  0  0  0  0
   34.9930   29.1470   34.2880 C   0  0  0  0  0  0  0  0  0  0  0  0
   40.2830   36.9340   27.1370 C   0  0  0  0  0  0  0  0  0  0  0  0
   39.0040   35.3120   28.7890 C   0  0  0  0  0  0  0  0  0  0  0  0
  1 17  1  0
  2 21  2  0
  3  6  1  0
  6 24  1  0
  7  9  1  0
  7 12  1  0
  8 11  1  0
 10 18  1  0
 12  5  1  0
 14 23  1  0
 14 22  1  0
 14  4  1  0
 15 16  1  0
 16  5  1  0
 16  1  1  0
 18  4  1  0
 18 25  1  0
 19 10  1  0
 20 15  1  0
 20  3  1  0
 21 26  1  0
 22 13  1  0
 22 19  1  0
 25  2  1  0
 25  8  1  0
 26 11  1  0
 26  7  1  0
M  END
$$$$

     RDKit          3D

 20 21  0  0  0  0  0  0  0  0999 V2000
   43.3560   37.1440   24.5580 C   0  0  0  0  0  0  0  0  0  0  0  0
   34.3490   36.6010   28.1820 C   0  0  0  0  0  0  0  0  0  0  0  0
   35.8370   34.7060   29.0160 C   0  0  0  0  0  0  0  0  0  0  0  0
   35.7310   35.8660   28.0620 C   0  0  0  0  0  0  0  0  0  0  0  0
   35.4240   35.0850   30.2610 O   0  0  0  0  0  0  0  0  0  0  0  0
   36.9400   35.0310   28.3630 C   0  0  0  0  0  0  0  0  0  0  0  0
   35.2020   33.3010   28.9830 C   0  0  0  0  0  0  0  0  0  0  0  0
   38.6450   37.7900   25.2910 C   0  0  0  0  0  0  0  0  0  0  0  0
   42.2190   37.1060   25.4840 O   0  0  0  0  0  0  0  0  0  0  0  0
   41.3370   38.2430   25.3930 C   0  0  0  0  0  0  0  0  0  0  0  0
   39.0010   34.7990   29.1520 C   0  0  0  0  0  0  0  0  0  0  0  0
   38.8540   34.0880   30.5270 C   0  0  0  0  0  0  0  0  0  0  0  0
   41.9190   39.3460   25.4940 O   0  0  0  0  0  0  0  0  0  0  0  0
   33.3590   35.5540   27.7360 C   0  0  0  0  0  0  0  0  0  0  0  0
   40.5270   34.8670   28.4180 S   0  0  0  0  0  0  0  0  0  0  0  0
   38.1110   35.3410   28.2380 C   0  0  0  0  0  0  0  0  0  0  0  0
   39.8650   38.3170   25.3610 C   0  0  0  0  0  0  0  0  0  0  0  0
   39.8910   35.7000   27.0300 C   0  0  0  0  0  0  0  0  0  0  0  0
   37.7580   37.2080   26.4850 C   0  0  0  0  0  0  0  0  0  0  0  0
   38.5740   36.1160   27.1440 C   0  0  0  0  0  0  0  0  0  0  0  0
  1  9  1  0
  3  7  1  0
  3  5  1  0
  4  2  1  0
  4  6  1  0
  4  3  1  0
  6 16  1  0
  6  3  1  0
  8 17  1  0
  8 19  1  0
 10  9  1  0
 10 13  2  0
 11 12  1  0
 14  2  1  0
 15 11  1  0
 16 11  1  0
 17 10  1  0
 18 20  1  0
 18 15  1  0
 19 20  1  0
 20 16  1  0
M  END
$$$$

     RDKit          3D

  9  9  0  0  0  0  0  0  0  0999 V2000
   40.1540   32.9090   28.3640 N   0  0  0  0  0  0  0  0  0  0  0  0
   38.6820   35.2180   28.8940 C   0  0  0  0  0  0  0  0  0  0  0  0
   40.5980   36.3950   28.6520 O   0  0  0  0  0  0  0  0  0  0  0  0
   38.1520   34.0030   28.8450 C   0  0  0  0  0  0  0  0  0  0  0  0
   36.8880   33.8820   29.3190 F   0  0  0  0  0  0  0  0  0  0  0  0
   40.6890   34.1100   28.1080 C   0  0  0  0  0  0  0  0  0  0  0  0
   38.8900   32.8580   28.7620 C   0  0  0  0  0  0  0  0  0  0  0  0
   41.8590   34.1620   27.4690 O   0  0  0  0  0  0  0  0  0  0  0  0
   40.0350   35.2550   28.5540 C   0  0  0  0  0  0  0  0  0  0  0  0
  1  7  2  0
  4  2  1  0
  4  5  1  0
  6  1  1  0
  6  9  1  0
  7  4  1  0
  8  6  2  0
  9  3  2  0
  9  2  1  0
M  END
$$$$

     RDKit          3D

 10 11  0  0  0  0  0  0  0  0999 V2000
   41.6440   34.9240   27.3640 N   0  0  0  0  0  0  0  0  0  0  0  0
   42.6830   35.8770   27.1180 C   0  0  0  0  0  0  0  0  0  0  0  0
   40.7010   33.5220   25.8560 O   0  0  0  0  0  0  0  0  0  0  0  0
   40.8140   35.7100   24.9830 C   0  0  0  0  0  0  0  0  0  0  0  0
   41.0470   35.9070   23.0920 S   0  0  0  0  0  0  0  0  0  0  0  0
   39.9320   36.8970   24.9880 C   0  0  0  0  0  0  0  0  0  0  0  0
   42.9940   36.5370   28.3060 O   0  0  0  0  0  0  0  0  0  0  0  0
   42.4880   36.5500   26.0850 C   0  0  0  0  0  0  0  0  0  0  0  0
   41.2080   36.9080   25.6840 C   0  0  0  0  0  0  0  0  0  0  0  0
   40.9710   34.7000   26.0650 C   0  0  0  0  0  0  0  0  0  0  0  0
  2  1  1  0
  2  7  1  0
  3 10  2  0
  4  5  1  0
  4  6  1  0
  4  9  1  0
  4 10  1  0
  8  2  1  0
  9  6  1  0
  9  8  1  0
 10  1  1  0
M  END
$$$$

     RDKit          3D

 18 19  0  0  0  0  0  0  0  0999 V2000
   41.4270   38.0050   28.3610 C   0  0  0  0  0  0  0  0  0  0  0  0
   41.5380   33.5400   28.3580 C   0  0  0  0  0  0  0  0  0  0  0  0
   38.6960   31.7620   29.6100 O   0  0  0  0  0  0  0  0  0  0  0  0
   38.6250   33.9210   29.3530 N   0  0  0  0  0  0  0  0  0  0  0  0
   37.2930   33.8150   29.3230 O   0  0  0  0  0  0  0  0  0  0  0  0
   34.6340   34.8410   27.4790 O   0  0  0  0  0  0  0  0  0  0  0  0
   37.8670   36.0450   28.9990 C   0  0  0  0  0  0  0  0  0  0  0  0
   40.4110   37.2440   28.9720 N   0  0  0  0  0  0  0  0  0  0  0  0
   40.4320   35.8340   28.8160 C   0  0  0  0  0  0  0  0  0  0  0  0
   42.6220   37.5890   28.1480 O   0  0  0  0  0  0  0  0  0  0  0  0
   36.7220   35.0280   28.9660 C   0  0  0  0  0  0  0  0  0  0  0  0
   37.9490   36.6160   27.7220 O   0  0  0  0  0  0  0  0  0  0  0  0
   41.6590   34.9320   29.0070 C   0  0  0  0  0  0  0  0  0  0  0  0
   39.2770   32.7700   29.2330 C   0  0  0  0  0  0  0  0  0  0  0  0
   43.1900   36.4710   27.5660 O   0  0  0  0  0  0  0  0  0  0  0  0
   35.8200   35.4960   27.8180 C   0  0  0  0  0  0  0  0  0  0  0  0
   39.1200   35.2840   29.4180 C   0  0  0  0  0  0  0  0  0  0  0  0
   40.5670   32.6550   28.7540 O   0  0  0  0  0  0  0  0  0  0  0  0
  1  8  1  0
  2 18  1  0
  2 13  1  0
  5  4  1  0
  6 16  1  0
  7 12  1  0
  7 17  1  0
  9  8  1  0
  9 13  1  0
  9 17  1  0
 10  1  1  0
 11 16  1  0
 11  7  1  0
 11  5  1  0
 14  4  1  0
 14  3  2  0
 15 10  1  0
 17  4  1  0
 18 14  1  0
M  END
$$$$

     RDKit          3D

 10  9  0  0  0  0  0  0  0  0999 V2000
   37.7910   33.2470   30.1270 N   0  0  0  0  0  0  0  0  0  0  0  0
   38.0950   32.1260   29.3540 C   0  0  0  0  0  0  0  0  0  0  0  0
   39.2480   33.4770   27.8210 N   0  0  0  0  0  0  0  0  0  0  0  0
   39.7450   34.5930   28.6030 C   0  0  0  0  0  0  0  0  0  0  0  0
   43.1570   34.1700   24.7270 C   0  0  0  0  0  0  0  0  0  0  0  0
   38.9640   32.4000   28.4900 N   0  0  0  0  0  0  0  0  0  0  0  0
   42.9850   35.4380   25.6740 C   0  0  0  0  0  0  0  0  0  0  0  0
   41.7240   34.5730   27.4450 C   0  0  0  0  0  0  0  0  0  0  0  0
   43.1580   34.9840   27.2410 C   0  0  0  0  0  0  0  0  0  0  0  0
   41.2300   34.2360   28.8430 C   0  0  0  0  0  0  0  0  0  0  0  0
  2  1  1  0
  3  6  1  0
  3  4  1  0
  4 10  1  0
  5  7  1  0
  6  2  1  0
  7  9  1  0
  8 10  1  0
  9  8  1  0
M  END
$$$$

     RDKit          3D

  6  5  0  0  0  0  0  0  0  0999 V2000
   42.5650   35.2040   28.8660 O   0  0  0  0  0  0  0  0  0  0  0  0
   41.5450   35.1140   26.7310 C   0  0  0  0  0  0  0  0  0  0  0  0
   41.4430   33.2890   28.0560 O   0  0  0  0  0  0  0  0  0  0  0  0
   40.4920   37.2910   25.8720 C   0  0  0  0  0  0  0  0  0  0  0  0
   41.1370   36.5450   26.9770 C   0  0  0  0  0  0  0  0  0  0  0  0
   41.8550   34.4110   27.8630 C   0  0  0  0  0  0  0  0  0  0  0  0
  2  5  1  0
  2  6  1  0
  4  5  1  0
  6  3  2  0
  6  1  1  0
M  END
$$$$

     RDKit          3D

 15 16  0  0  0  0  0  0  0  0999 V2000
   35.8670   31.4190   34.1280 C   0  0  0  0  0  0  0  0  0  0  0  0
   34.8560   34.6990   29.8140 N   0  0  0  0  0  0  0  0  0  0  0  0
   35.8660   34.0650   30.3380 C   0  0  0  0  0  0  0  0  0  0  0  0
   35.2080   35.2560   28.7010 C   0  0  0  0  0  0  0  0  0  0  0  0
   37.4410   35.5210   27.9160 C   0  0  0  0  0  0  0  0  0  0  0  0
   34.2350   36.1010   27.9370 C   0  0  0  0  0  0  0  0  0  0  0  0
   37.4150   34.6860   28.7600 C   0  0  0  0  0  0  0  0  0  0  0  0
   33.5080   33.7400   32.5160 N   0  0  0  0  0  0  0  0  0  0  0  0
   35.8870   33.1780   31.4100 C   0  0  0  0  0  0  0  0  0  0  0  0
   36.3880   35.2120   28.2580 C   0  0  0  0  0  0  0  0  0  0  0  0
   34.7940   33.1130   32.4330 C   0  0  0  0  0  0  0  0  0  0  0  0
   33.4190   36.4350   27.2370 N   0  0  0  0  0  0  0  0  0  0  0  0
   35.2380   31.9940   33.1720 O   0  0  0  0  0  0  0  0  0  0  0  0
   37.1070   34.2800   29.7260 C   0  0  0  0  0  0  0  0  0  0  0  0
   37.0080   32.4950   31.6070 N   0  0  0  0  0  0  0  0  0  0  0  0
  2  3  1  0
  3  9  1  0
  4  2  2  0
  5 10  1  0
  5  7  1  0
  6  4  1  0
  7 14  1  0
  9 15  2  0
  9 11  1  0
 10  4  1  0
 10  7  2  0
 11  8  1  0
 11 13  1  0
 12  6  3  0
 13  1  1  0
 14  3  2  0
M  END
$$$$

     RDKit          3D

  7  7  0  0  0  0  0  0  0  0999 V2000
   38.9500   34.4430   28.6990 C   0  0  0  0  0  0  0  0  0  0  0  0
   37.9740   34.0400   29.8240 C   0  0  0  0  0  0  0  0  0  0  0  0
   41.0620   32.9360   27.8160 O   0  0  0  0  0  0  0  0  0  0  0  0
   39.3970   32.3320   29.4190 C   0  0  0  0  0  0  0  0  0  0  0  0
   39.4820   31.0940   29.2870 O   0  0  0  0  0  0  0  0  0  0  0  0
   38.4420   32.7810   30.3140 N   0  0  0  0  0  0  0  0  0  0  0  0
   40.1040   33.4650   28.8260 C   0  0  0  0  0  0  0  0  0  0  0  0
  1  7  1  0
  1  2  1  0
  2  6  1  0
  4  6  1  0
  5  4  2  0
  7  3  1  0
  7  4  1  0
M  END
$$$$

     RDKit          3D

 35 36  0  0  0  0  0  0  0  0999 V2000
   40.0540   36.3760   28.5920 C   0  0  0  0  0  0  0  0  0  0  0  0
   38.2140   32.6590   29.5960 O   0  0  0  0  0  0  0  0  0  0  0  0
   30.4700   28.8760   27.6720 C   0  0  0  0  0  0  0  0  0  0  0  0
   47.3190   40.0030   24.8850 N   0  0  0  0  0  0  0  0  0  0  0  0
   39.0640   35.4280   28.6200 C   0  0  0  0  0  0  0  0  0  0  0  0
   44.4870   40.4270   23.4340 O   0  0  0  0  0  0  0  0  0  0  0  0
   36.9690   34.7120   30.0560 C   0  0  0  0  0  0  0  0  0  0  0  0
   42.0440   37.7410   26.1180 C   0  0  0  0  0  0  0  0  0  0  0  0
   32.0790   30.1780   28.5560 C   0  0  0  0  0  0  0  0  0  0  0  0
   43.7960   39.2860   25.4260 C   0  0  0  0  0  0  0  0  0  0  0  0
   42.5530   39.1650   26.2530 C   0  0  0  0  0  0  0  0  0  0  0  0
   46.3280   39.5770   25.4590 C   0  0  0  0  0  0  0  0  0  0  0  0
   37.1740   33.2290   30.0910 C   0  0  0  0  0  0  0  0  0  0  0  0
   33.5360   30.3250   30.2470 C   0  0  0  0  0  0  0  0  0  0  0  0
   43.7400   39.5930   24.0340 C   0  0  0  0  0  0  0  0  0  0  0  0
   42.2450   36.7600   27.2590 C   0  0  0  0  0  0  0  0  0  0  0  0
   36.8970   31.1890   31.4170 C   0  0  0  0  0  0  0  0  0  0  0  0
   40.7090   34.7140   27.1420 C   0  0  0  0  0  0  0  0  0  0  0  0
   34.9750   32.3300   30.4540 C   0  0  0  0  0  0  0  0  0  0  0  0
   42.6420   37.4540   28.4180 O   0  0  0  0  0  0  0  0  0  0  0  0
   32.9730   28.1060   28.7060 C   0  0  0  0  0  0  0  0  0  0  0  0
   46.1280   38.7890   29.3180 C   0  0  0  0  0  0  0  0  0  0  0  0
   46.0550   38.1420   27.9700 C   0  0  0  0  0  0  0  0  0  0  0  0
   31.3120   31.2000   28.2850 O   0  0  0  0  0  0  0  0  0  0  0  0
   31.7850   28.9280   28.4210 N   0  0  0  0  0  0  0  0  0  0  0  0
   39.4090   34.3160   27.6510 C   0  0  0  0  0  0  0  0  0  0  0  0
   33.2660   30.5560   29.1030 O   0  0  0  0  0  0  0  0  0  0  0  0
   35.7830   30.1780   31.2720 C   0  0  0  0  0  0  0  0  0  0  0  0
   45.0250   39.3340   26.1220 C   0  0  0  0  0  0  0  0  0  0  0  0
   36.3140   32.5300   30.9190 N   0  0  0  0  0  0  0  0  0  0  0  0
   47.1380   38.8810   28.3220 F   0  0  0  0  0  0  0  0  0  0  0  0
   40.8610   36.1940   27.4590 C   0  0  0  0  0  0  0  0  0  0  0  0
   37.6850   35.5700   29.2060 C   0  0  0  0  0  0  0  0  0  0  0  0
   44.9130   38.5790   27.2530 N   0  0  0  0  0  0  0  0  0  0  0  0
   34.5600   30.9830   31.0410 C   0  0  0  0  0  0  0  0  0  0  0  0
  1  5  1  0
  2 13  2  0
  3 25  1  0
  4 12  3  0
  5 33  1  0
  6 15  2  0
  7 13  1  0
  8 11  1  0
  8 16  1  0
  9 27  1  0
 10 15  1  0
 10 29  1  0
 10 11  1  0
 12 29  1  0
 13 30  1  0
 16 20  1  0
 18 32  1  0
 18 26  1  0
 19 30  1  0
 19 35  1  0
 23 31  1  0
 23 22  1  0
 24  9  2  0
 25  9  1  0
 25 21  1  0
 26  5  1  0
 27 14  1  0
 28 17  1  0
 29 34  2  3
 30 17  1  0
 32 16  1  0
 32  1  1  0
 33  7  1  0
 34 23  1  0
 35 14  1  0
 35 28  1  0
M  END
$$$$

     RDKit          3D

 22 24  0  0  0  0  0  0  0  0999 V2000
   38.8470   34.4740   28.8600 C   0  0  0  0  0  0  0  0  0  0  0  0
   34.5950   28.8980   29.2440 C   0  0  0  0  0  0  0  0  0  0  0  0
   41.1420   39.7340   27.3770 C   0  0  0  0  0  0  0  0  0  0  0  0
   38.9500   33.3710   29.7310 O   0  0  0  0  0  0  0  0  0  0  0  0
   40.3980   37.7580   28.0530 C   0  0  0  0  0  0  0  0  0  0  0  0
   37.6110   33.8320   29.5090 C   0  0  0  0  0  0  0  0  0  0  0  0
   35.1810   30.1310   29.5060 C   0  0  0  0  0  0  0  0  0  0  0  0
   39.6470   36.6340   28.0760 N   0  0  0  0  0  0  0  0  0  0  0  0
   38.2040   36.6190   27.7350 C   0  0  0  0  0  0  0  0  0  0  0  0
   36.3630   27.8330   30.5190 C   0  0  0  0  0  0  0  0  0  0  0  0
   40.0930   38.8890   27.1820 C   0  0  0  0  0  0  0  0  0  0  0  0
   37.9170   37.6200   27.3560 C   0  0  0  0  0  0  0  0  0  0  0  0
   32.3310   28.2440   28.3750 C   0  0  0  0  0  0  0  0  0  0  0  0
   37.2270   31.5290   30.2090 C   0  0  0  0  0  0  0  0  0  0  0  0
   39.9810   35.4850   28.9220 C   0  0  0  0  0  0  0  0  0  0  0  0
   41.4930   37.9010   28.9230 N   0  0  0  0  0  0  0  0  0  0  0  0
   41.9260   39.2470   28.5590 N   0  0  0  0  0  0  0  0  0  0  0  0
   37.0780   29.0320   30.4760 C   0  0  0  0  0  0  0  0  0  0  0  0
   36.4800   30.1800   30.0150 C   0  0  0  0  0  0  0  0  0  0  0  0
   33.7290   28.6850   27.9670 C   0  0  0  0  0  0  0  0  0  0  0  0
   35.0820   27.7750   29.9320 C   0  0  0  0  0  0  0  0  0  0  0  0
   36.5180   32.8060   29.9230 C   0  0  0  0  0  0  0  0  0  0  0  0
  1 15  1  0
  1  6  1  0
  1  4  1  0
  2  7  2  0
  2 21  1  0
  3 17  1  0
  5  8  1  0
  5 16  1  0
  6  4  1  0
  6 22  1  0
  7 19  1  0
  8 15  1  0
  9  8  1  0
 11  3  1  0
 11  5  1  0
 12  9  1  0
 17 16  1  0
 18 10  1  0
 19 14  1  0
 19 18  2  0
 20 13  1  0
 20  2  1  0
 21 10  2  0
 22 14  1  0
M  END
$$$$

     RDKit          3D

  6  5  0  0  0  0  0  0  0  0999 V2000
   41.3830   34.7730   25.7820 C   0  0  0  0  0  0  0  0  0  0  0  0
   40.5950   37.0960   25.3120 N   0  0  0  0  0  0  0  0  0  0  0  0
   41.5260   34.6630   24.3950 O   0  0  0  0  0  0  0  0  0  0  0  0
   42.7060   34.1370   26.1760 C   0  0  0  0  0  0  0  0  0  0  0  0
   42.4530   32.5670   25.5620 O   0  0  0  0  0  0  0  0  0  0  0  0
   41.2150   36.2140   26.2440 C   0  0  0  0  0  0  0  0  0  0  0  0
  1  3  1  0
  1  4  1  0
  1  6  1  0
  2  6  1  0
  5  4  1  0
M  END
$$$$

     RDKit          3D

 10 11  0  0  0  0  0  0  0  0999 V2000
   40.5500   36.0300   26.4700 C   0  0  0  0  0  0  0  0  0  0  0  0
   40.8040   34.7250   27.1590 C   0  0  0  0  0  0  0  0  0  0  0  0
   42.7380   36.1190   25.6310 C   0  0  0  0  0  0  0  0  0  0  0  0
   40.0490   32.8070   28.3450 O   0  0  0  0  0  0  0  0  0  0  0  0
   41.0090   33.5660   28.2570 C   0  0  0  0  0  0  0  0  0  0  0  0
   41.1840   36.0370   25.2010 O   0  0  0  0  0  0  0  0  0  0  0  0
   42.6170   36.6760   26.7070 C   0  0  0  0  0  0  0  0  0  0  0  0
   42.1220   33.2790   28.6310 O   0  0  0  0  0  0  0  0  0  0  0  0
   41.6150   35.8850   27.4800 N   0  0  0  0  0  0  0  0  0  0  0  0
   42.2100   37.8020   25.9810 O   0  0  0  0  0  0  0  0  0  0  0  0
  1  6  1  0
  1  2  1  0
  1  9  1  0
  2  9  1  0
  2  5  1  0
  3  7  1  0
  5  4  2  0
  5  8  1  0
  6  3  1  0
  7 10  1  0
  7  9  1  0
M  END
$$$$

     RDKit          3D

  9  9  0  0  0  0  0  0  0  0999 V2000
   41.0070   32.4640   28.6900 O   0  0  0  0  0  0  0  0  0  0  0  0
   39.3440   36.0040   27.7800 C   0  0  0  0  0  0  0  0  0  0  0  0
   38.5490   35.1980   28.7950 N   0  0  0  0  0  0  0  0  0  0  0  0
   39.0600   31.6470   28.8900 O   0  0  0  0  0  0  0  0  0  0  0  0
   37.8150   37.3600   28.7430 C   0  0  0  0  0  0  0  0  0  0  0  0
   39.6640   32.6880   29.1120 C   0  0  0  0  0  0  0  0  0  0  0  0
   39.4190   34.0770   29.1220 C   0  0  0  0  0  0  0  0  0  0  0  0
   37.5370   35.9800   29.0590 C   0  0  0  0  0  0  0  0  0  0  0  0
   38.9400   37.3170   28.1170 C   0  0  0  0  0  0  0  0  0  0  0  0
  1  6  2  0
  2  9  1  0
  2  3  1  0
  3  8  1  0
  3  7  1  0
  4  6  1  0
  5  8  1  0
  6  7  1  0
  9  5  1  0
M  END
$$$$

     RDKit          3D

 29 31  0  0  0  0  0  0  0  0999 V2000
   37.8290   30.3840   29.7980 C   0  0  0  0  0  0  0  0  0  0  0  0
   36.5340   32.6970   29.3410 C   0  0  0  0  0  0  0  0  0  0  0  0
   37.3970   34.8650   28.7310 C   0  0  0  0  0  0  0  0  0  0  0  0
   33.7110   34.7900   28.4070 O   0  0  0  0  0  0  0  0  0  0  0  0
   37.2430   25.8550   32.1570 C   0  0  0  0  0  0  0  0  0  0  0  0
   39.7580   37.2300   25.0890 C   0  0  0  0  0  0  0  0  0  0  0  0
   41.1640   37.3910   24.6560 C   0  0  0  0  0  0  0  0  0  0  0  0
   38.6500   35.3070   28.8860 N   0  0  0  0  0  0  0  0  0  0  0  0
   36.0640   35.2050   28.5320 C   0  0  0  0  0  0  0  0  0  0  0  0
   39.0210   28.7570   29.3440 N   0  0  0  0  0  0  0  0  0  0  0  0
   38.6750   26.0790   31.6130 C   0  0  0  0  0  0  0  0  0  0  0  0
   38.7910   36.0260   27.0360 O   0  0  0  0  0  0  0  0  0  0  0  0
   41.5840   36.4150   27.1240 C   0  0  0  0  0  0  0  0  0  0  0  0
   34.9430   34.3610   28.8210 C   0  0  0  0  0  0  0  0  0  0  0  0
   39.0120   38.5540   25.1560 C   0  0  0  0  0  0  0  0  0  0  0  0
   39.3960   35.7360   27.9290 C   0  0  0  0  0  0  0  0  0  0  0  0
   37.6440   27.9250   30.5710 C   0  0  0  0  0  0  0  0  0  0  0  0
   35.1880   33.0870   29.2470 C   0  0  0  0  0  0  0  0  0  0  0  0
   37.5740   27.0990   31.4910 N   0  0  0  0  0  0  0  0  0  0  0  0
   39.1610   31.0650   29.4730 C   0  0  0  0  0  0  0  0  0  0  0  0
   37.7680   33.6310   28.8550 C   0  0  0  0  0  0  0  0  0  0  0  0
   32.5160   34.2910   29.0540 C   0  0  0  0  0  0  0  0  0  0  0  0
   40.8170   35.8790   28.1560 N   0  0  0  0  0  0  0  0  0  0  0  0
   40.8690   36.9420   26.0330 C   0  0  0  0  0  0  0  0  0  0  0  0
   41.9970   36.7960   23.8080 C   0  0  0  0  0  0  0  0  0  0  0  0
   36.8970   31.5530   29.8000 N   0  0  0  0  0  0  0  0  0  0  0  0
   42.9810   36.4370   27.2410 C   0  0  0  0  0  0  0  0  0  0  0  0
   37.0150   29.2530   30.4930 C   0  0  0  0  0  0  0  0  0  0  0  0
   38.7450   27.9590   29.8040 N   0  0  0  0  0  0  0  0  0  0  0  0
  1 20  1  0
  1 26  1  0
  1 28  1  0
  2 26  1  0
  3 21  1  0
  3  8  1  0
  4 14  1  0
  4 22  1  0
  6 15  1  0
  6 24  1  0
  7 25  1  0
  7  6  1  0
  7 24  1  0
  9  3  2  0
  9 14  1  0
 10 29  2  0
 11  5  1  0
 12 16  2  0
 13 27  1  0
 13 23  2  3
 14 18  2  0
 16 23  1  0
 16  8  1  0
 17 28  1  0
 17 19  1  0
 18  2  1  0
 19 11  1  0
 19  5  1  0
 21  2  2  0
 24 13  1  0
 29 17  1  0
M  END
$$$$

     RDKit          3D

 24 24  0  0  0  0  0  0  0  0999 V2000
   39.3390   36.5210   26.7820 C   0  0  0  0  0  0  0  0  0  0  0  0
   42.5780   36.5050   25.1110 N   0  0  0  0  0  0  0  0  0  0  0  0
   42.3910   34.5140   26.7070 C   0  0  0  0  0  0  0  0  0  0  0  0
   34.9820   29.1870   30.4430 O   0  0  0  0  0  0  0  0  0  0  0  0
   40.6190   37.0390   26.3120 C   0  0  0  0  0  0  0  0  0  0  0  0
   37.6300   35.3800   28.2110 C   0  0  0  0  0  0  0  0  0  0  0  0
   38.8840   35.5030   27.5170 N   0  0  0  0  0  0  0  0  0  0  0  0
   38.6560   37.2460   26.1600 O   0  0  0  0  0  0  0  0  0  0  0  0
   36.6570   29.4380   28.2280 O   0  0  0  0  0  0  0  0  0  0  0  0
   35.6440   34.5590   29.3680 C   0  0  0  0  0  0  0  0  0  0  0  0
   36.8560   36.4570   27.8960 O   0  0  0  0  0  0  0  0  0  0  0  0
   35.8190   31.2720   31.0250 C   0  0  0  0  0  0  0  0  0  0  0  0
   37.0550   34.4650   29.3050 C   0  0  0  0  0  0  0  0  0  0  0  0
   36.9620   29.7930   29.4050 C   0  0  0  0  0  0  0  0  0  0  0  0
   37.5160   33.3740   29.8230 N   0  0  0  0  0  0  0  0  0  0  0  0
   41.7400   35.3180   26.9200 N   0  0  0  0  0  0  0  0  0  0  0  0
   36.7240   32.5380   30.8310 C   0  0  0  0  0  0  0  0  0  0  0  0
   34.9300   33.9490   30.5270 C   0  0  0  0  0  0  0  0  0  0  0  0
   35.8580   30.0780   30.3260 C   0  0  0  0  0  0  0  0  0  0  0  0
   34.8420   31.3810   32.0710 O   0  0  0  0  0  0  0  0  0  0  0  0
   35.9820   33.6030   31.4030 O   0  0  0  0  0  0  0  0  0  0  0  0
   38.1550   29.8050   29.8810 O   0  0  0  0  0  0  0  0  0  0  0  0
   34.9880   35.1250   28.4520 O   0  0  0  0  0  0  0  0  0  0  0  0
   41.6810   36.3620   26.0200 C   0  0  0  0  0  0  0  0  0  0  0  0
  1  7  1  0
  2 24  2  0
  3 16  2  0
  5  1  1  0
  7  6  1  0
  8  1  2  0
  9 14  2  0
 10 18  1  0
 11  6  2  0
 12 20  1  0
 13  6  1  0
 13 10  1  0
 13 15  1  0
 14 22  1  0
 14 19  1  0
 15 17  2  0
 17 12  1  0
 17 21  1  0
 18 21  1  0
 19  4  2  0
 19 12  1  0
 23 10  2  0
 24  5  1  0
 24 16  1  0
M  END
$$$$

     RDKit          3D

 14 14  0  0  0  0  0  0  0  0999 V2000
   40.9060   34.7510   26.6110 O   0  0  0  0  0  0  0  0  0  0  0  0
   39.5270   34.9260   28.5270 C   0  0  0  0  0  0  0  0  0  0  0  0
   42.4010   36.3080   28.3330 C   0  0  0  0  0  0  0  0  0  0  0  0
   41.0180   36.9880   24.7770 O   0  0  0  0  0  0  0  0  0  0  0  0
   40.3490   32.3250   28.2260 O   0  0  0  0  0  0  0  0  0  0  0  0
   41.1000   33.3710   28.5160 C   0  0  0  0  0  0  0  0  0  0  0  0
   38.9480   36.4560   25.2380 O   0  0  0  0  0  0  0  0  0  0  0  0
   41.9230   33.2560   29.4500 O   0  0  0  0  0  0  0  0  0  0  0  0
   39.9540   36.8630   25.6320 C   0  0  0  0  0  0  0  0  0  0  0  0
   41.3420   35.8790   27.4040 C   0  0  0  0  0  0  0  0  0  0  0  0
   41.8560   36.2380   29.5970 O   0  0  0  0  0  0  0  0  0  0  0  0
   41.1080   38.2310   27.5560 O   0  0  0  0  0  0  0  0  0  0  0  0
   40.7150   34.6490   27.9820 C   0  0  0  0  0  0  0  0  0  0  0  0
   40.4160   37.0560   27.0910 C   0  0  0  0  0  0  0  0  0  0  0  0
  1 10  1  0
  1 13  1  0
  3 11  1  0
  4  9  2  0
  5  6  2  0
  6  8  1  0
  7  9  1  0
  9 14  1  0
 10 13  1  0
 10  3  1  0
 13  6  1  0
 13  2  1  0
 14 10  1  0
 14 12  1  0
M  END
$$$$

     RDKit          3D

 13 13  0  0  0  0  0  0  0  0999 V2000
   36.0730   36.4680   27.4390 O   0  0  0  0  0  0  0  0  0  0  0  0
   42.5300   36.7200   25.9700 O   0  0  0  0  0  0  0  0  0  0  0  0
   38.1700   35.5450   28.0580 C   0  0  0  0  0  0  0  0  0  0  0  0
   36.7450   35.5490   28.2290 N   0  0  0  0  0  0  0  0  0  0  0  0
   42.2750   35.6420   26.7670 N   0  0  0  0  0  0  0  0  0  0  0  0
   40.8910   35.5550   27.1240 C   0  0  0  0  0  0  0  0  0  0  0  0
   38.7270   36.6860   27.4630 C   0  0  0  0  0  0  0  0  0  0  0  0
   43.2750   35.0980   27.3510 O   0  0  0  0  0  0  0  0  0  0  0  0
   38.9930   34.3540   28.1910 C   0  0  0  0  0  0  0  0  0  0  0  0
   35.9710   34.7560   28.5360 O   0  0  0  0  0  0  0  0  0  0  0  0
   40.0810   36.7090   27.0750 C   0  0  0  0  0  0  0  0  0  0  0  0
   40.3070   34.2820   27.5470 C   0  0  0  0  0  0  0  0  0  0  0  0
   40.9460   33.1500   27.0950 O   0  0  0  0  0  0  0  0  0  0  0  0
  1  4  2  0
  2  5  2  0
  3  9  1  0
  3  4  1  0
  4 10  2  0
  5  6  1  0
  5  8  2  0
  6 12  1  0
  7  3  2  0
 11  6  2  0
 11  7  1  0
 12  9  2  0
 13 12  1  0
M  END
$$$$

     RDKit          3D

 14 16  0  0  0  0  0  0  0  0999 V2000
   37.6420   30.2780   31.8960 O   0  0  0  0  0  0  0  0  0  0  0  0
   37.4940   33.5270   30.8020 C   0  0  0  0  0  0  0  0  0  0  0  0
   34.0370   35.4410   28.0720 C   0  0  0  0  0  0  0  0  0  0  0  0
   37.5290   31.1020   30.9690 C   0  0  0  0  0  0  0  0  0  0  0  0
   36.1950   33.6090   30.3840 N   0  0  0  0  0  0  0  0  0  0  0  0
   35.9260   32.4490   32.4290 C   0  0  0  0  0  0  0  0  0  0  0  0
   35.3750   34.2130   31.1970 C   0  0  0  0  0  0  0  0  0  0  0  0
   34.1800   34.7700   30.6470 C   0  0  0  0  0  0  0  0  0  0  0  0
   38.2640   31.0060   29.9600 O   0  0  0  0  0  0  0  0  0  0  0  0
   35.9830   34.4620   29.1320 C   0  0  0  0  0  0  0  0  0  0  0  0
   36.6420   32.3780   31.1030 C   0  0  0  0  0  0  0  0  0  0  0  0
   35.9060   34.0330   32.5260 C   0  0  0  0  0  0  0  0  0  0  0  0
   34.4570   34.5960   29.2390 C   0  0  0  0  0  0  0  0  0  0  0  0
   35.1250   36.2630   27.7380 O   0  0  0  0  0  0  0  0  0  0  0  0
  2 11  1  0
  4  1  1  0
  5 10  1  0
  5  2  1  0
  5 11  1  0
  5  7  1  0
  6 12  1  0
  7  8  1  0
  7 12  1  0
  9  4  2  0
 10 13  1  0
 11  4  1  0
 11  6  1  0
 13  3  1  0
 13  8  1  0
 14  3  1  0
M  END
$$$$

     RDKit          3D

  4  3  0  0  0  0  0  0  0  0999 V2000
   41.0260   34.4700   24.4050 N   0  0  0  0  0  0  0  0  0  0  0  0
   39.8590   34.4460   25.6130 C   0  0  0  0  0  0  0  0  0  0  0  0
   40.7950   34.6300   26.7830 C   0  0  0  0  0  0  0  0  0  0  0  0
   41.0610   33.3410   27.5930 C   0  0  0  0  0  0  0  0  0  0  0  0
  1  2  1  0
  2  3  1  0
  3  4  1  0
M  END
$$$$
