
     RDKit          3D

 10  9  0  0  0  0  0  0  0  0999 V2000
   36.0800   40.9110   27.6860 C   0  0  0  0  0  0  0  0  0  0  0  0
   37.5540   40.8390   27.4540 C   0  0  0  0  0  0  0  0  0  0  0  0
   41.7580   40.7380   29.9180 C   0  0  0  0  0  0  0  0  0  0  0  0
   35.1460   41.0720   26.4990 C   0  0  0  0  0  0  0  0  0  0  0  0
   38.4580   40.0740   28.0680 C   0  0  0  0  0  0  0  0  0  0  0  0
   41.3840   38.8950   28.5350 N   0  0  0  0  0  0  0  0  0  0  0  0
   40.8440   39.9340   29.0610 C   0  0  0  0  0  0  0  0  0  0  0  0
   42.2820   40.4750   30.9940 O   0  0  0  0  0  0  0  0  0  0  0  0
   39.5230   40.2490   28.9090 N   0  0  0  0  0  0  0  0  0  0  0  0
   42.1090   41.8280   29.2210 O   0  0  0  0  0  0  0  0  0  0  0  0
  2  1  1  0
  2  5  1  0
  3  8  1  0
  4  1  1  0
  5  9  1  0
  6  7  2  0
  7  3  1  0
  9  7  1  0
 10  3  2  0
M  END
$$$$

     RDKit          3D

  8  9  0  0  0  0  0  0  0  0999 V2000
   41.4370   41.7490   28.9440 C   0  0  0  0  0  0  0  0  0  0  0  0
   39.8550   39.9550   28.7190 C   0  0  0  0  0  0  0  0  0  0  0  0
   42.2050   40.5720   27.2770 C   0  0  0  0  0  0  0  0  0  0  0  0
   41.2610   41.2200   30.3690 N   0  0  0  0  0  0  0  0  0  0  0  0
   40.1290   39.1960   27.6970 C   0  0  0  0  0  0  0  0  0  0  0  0
   41.2210   39.6140   26.6750 C   0  0  0  0  0  0  0  0  0  0  0  0
   41.0340   40.4230   29.4570 C   0  0  0  0  0  0  0  0  0  0  0  0
   41.6480   41.8460   27.6710 N   0  0  0  0  0  0  0  0  0  0  0  0
  1  8  1  0
  1  7  1  0
  1  4  1  0
  3  8  1  0
  5  2  1  0
  6  3  1  0
  6  5  1  0
  7  2  1  0
  7  4  1  0
M  END
$$$$

     RDKit          3D

 11 12  0  0  0  0  0  0  0  0999 V2000
   40.1900   41.3830   30.3550 C   0  0  0  0  0  0  0  0  0  0  0  0
   42.0440   41.9990   28.7640 C   0  0  0  0  0  0  0  0  0  0  0  0
   37.5570   39.1780   29.9270 C   0  0  0  0  0  0  0  0  0  0  0  0
   40.2100   42.7080   30.9960 O   0  0  0  0  0  0  0  0  0  0  0  0
   41.8540   39.6900   29.3090 C   0  0  0  0  0  0  0  0  0  0  0  0
   38.9890   38.9440   29.6830 N   0  0  0  0  0  0  0  0  0  0  0  0
   41.7150   41.0600   29.9440 C   0  0  0  0  0  0  0  0  0  0  0  0
   37.5370   39.9870   31.1270 C   0  0  0  0  0  0  0  0  0  0  0  0
   36.7770   38.0250   30.1870 O   0  0  0  0  0  0  0  0  0  0  0  0
   39.0340   40.6700   31.2730 C   0  0  0  0  0  0  0  0  0  0  0  0
   39.4800   40.2110   29.8750 C   0  0  0  0  0  0  0  0  0  0  0  0
  1  4  1  0
  1 10  1  0
  2  7  1  0
  3  9  1  0
  3  8  1  0
  5  7  1  0
  6  3  1  0
  7  1  1  0
 10  8  1  0
 11  6  1  0
 11  1  1  0
 11 10  1  0
M  END
$$$$

     RDKit          3D

  7  6  0  0  0  0  0  0  0  0999 V2000
   41.6210   40.0460   28.4920 O   0  0  0  0  0  0  0  0  0  0  0  0
   39.2710   40.2520   28.1410 C   0  0  0  0  0  0  0  0  0  0  0  0
   40.2370   37.9830   28.6000 C   0  0  0  0  0  0  0  0  0  0  0  0
   38.8200   40.8890   25.9570 N   0  0  0  0  0  0  0  0  0  0  0  0
   38.9390   41.1260   27.2460 C   0  0  0  0  0  0  0  0  0  0  0  0
   40.3230   39.3820   28.4090 C   0  0  0  0  0  0  0  0  0  0  0  0
   40.4790   37.8360   30.0030 O   0  0  0  0  0  0  0  0  0  0  0  0
  2  6  1  0
  3  7  1  0
  4  5  2  0
  5  2  1  0
  6  1  1  0
  6  3  1  0
M  END
$$$$

     RDKit          3D

  7  6  0  0  0  0  0  0  0  0999 V2000
   40.1500   38.0540   30.2510 C   0  0  0  0  0  0  0  0  0  0  0  0
   38.8680   39.9440   29.3170 C   0  0  0  0  0  0  0  0  0  0  0  0
   38.2640   40.7760   30.2720 O   0  0  0  0  0  0  0  0  0  0  0  0
   38.0290   38.8460   29.0760 O   0  0  0  0  0  0  0  0  0  0  0  0
   41.0770   39.5460   28.4960 C   0  0  0  0  0  0  0  0  0  0  0  0
   40.2590   39.5260   29.7690 C   0  0  0  0  0  0  0  0  0  0  0  0
   40.7720   40.6600   30.5630 O   0  0  0  0  0  0  0  0  0  0  0  0
  2  6  1  0
  2  3  1  0
  4  2  1  0
  5  6  1  0
  6  1  1  0
  6  7  1  0
M  END
$$$$

     RDKit          3D

 11 11  0  0  0  0  0  0  0  0999 V2000
   37.7560   40.5650   31.0530 C   0  0  0  0  0  0  0  0  0  0  0  0
   40.2290   40.8020   31.7520 O   0  0  0  0  0  0  0  0  0  0  0  0
   39.4280   38.7780   30.6120 C   0  0  0  0  0  0  0  0  0  0  0  0
   41.6060   39.1670   31.5480 O   0  0  0  0  0  0  0  0  0  0  0  0
   38.5740   39.8830   30.0380 C   0  0  0  0  0  0  0  0  0  0  0  0
   40.8830   36.8570   29.4040 O   0  0  0  0  0  0  0  0  0  0  0  0
   39.7220   37.6030   28.5230 O   0  0  0  0  0  0  0  0  0  0  0  0
   40.4020   39.5580   31.4530 C   0  0  0  0  0  0  0  0  0  0  0  0
   39.8100   37.5840   29.8050 C   0  0  0  0  0  0  0  0  0  0  0  0
   38.3150   36.2310   30.6550 Cl  0  0  0  0  0  0  0  0  0  0  0  0
   39.4540   40.7620   29.3920 O   0  0  0  0  0  0  0  0  0  0  0  0
  3  8  1  0
  5  3  1  0
  5  1  1  0
  6  9  1  0
  7  6  1  0
  7  9  1  0
  8  4  2  0
  8  2  1  0
  9  3  1  0
  9 10  1  0
 11  5  1  0
M  END
$$$$

     RDKit          3D

 13 12  0  0  0  0  0  0  0  0999 V2000
   37.5730   41.4120   26.6080 O   0  0  0  0  0  0  0  0  0  0  0  0
   38.8210   35.8880   31.0960 C   0  0  0  0  0  0  0  0  0  0  0  0
   38.1720   41.3930   30.1520 C   0  0  0  0  0  0  0  0  0  0  0  0
   39.1920   40.4140   30.6390 N   0  0  0  0  0  0  0  0  0  0  0  0
   39.9030   36.8180   30.8720 C   0  0  0  0  0  0  0  0  0  0  0  0
   38.3260   41.7080   28.7140 C   0  0  0  0  0  0  0  0  0  0  0  0
   38.9220   34.5490   30.8590 N   0  0  0  0  0  0  0  0  0  0  0  0
   37.8410   38.8920   30.6420 O   0  0  0  0  0  0  0  0  0  0  0  0
   38.8010   39.0460   30.6400 C   0  0  0  0  0  0  0  0  0  0  0  0
   37.6370   40.7920   24.2500 C   0  0  0  0  0  0  0  0  0  0  0  0
   39.8830   38.0950   31.0140 C   0  0  0  0  0  0  0  0  0  0  0  0
   38.4680   41.4330   25.4510 C   0  0  0  0  0  0  0  0  0  0  0  0
   37.7860   42.5240   27.5730 C   0  0  0  0  0  0  0  0  0  0  0  0
  1 13  1  0
  3  4  1  0
  4  9  1  0
  5 11  1  0
  5  2  2  3
  6  3  1  0
  7  2  1  0
  9  8  2  0
  9 11  1  0
 10 12  1  0
 12  1  1  0
 13  6  1  0
M  END
$$$$

     RDKit          3D

 15 15  0  0  0  0  0  0  0  0999 V2000
   36.3180   37.9170   31.2240 C   0  0  0  0  0  0  0  0  0  0  0  0
   37.5150   37.1970   31.2010 C   0  0  0  0  0  0  0  0  0  0  0  0
   33.7120   35.6740   32.8010 C   0  0  0  0  0  0  0  0  0  0  0  0
   37.5220   35.9750   31.8590 C   0  0  0  0  0  0  0  0  0  0  0  0
   38.6090   39.3010   30.0270 C   0  0  0  0  0  0  0  0  0  0  0  0
   39.3830   41.7540   29.8460 C   0  0  0  0  0  0  0  0  0  0  0  0
   35.0840   36.1480   32.3110 C   0  0  0  0  0  0  0  0  0  0  0  0
   40.8990   39.7870   29.3150 O   0  0  0  0  0  0  0  0  0  0  0  0
   33.5480   34.3610   33.0970 N   0  0  0  0  0  0  0  0  0  0  0  0
   32.7380   36.4650   32.8480 O   0  0  0  0  0  0  0  0  0  0  0  0
   35.1560   37.4190   31.7530 C   0  0  0  0  0  0  0  0  0  0  0  0
   39.8680   36.9670   30.0950 C   0  0  0  0  0  0  0  0  0  0  0  0
   38.7210   37.8570   30.4740 C   0  0  0  0  0  0  0  0  0  0  0  0
   39.5900   40.3100   29.4770 C   0  0  0  0  0  0  0  0  0  0  0  0
   36.3140   35.4300   32.3330 C   0  0  0  0  0  0  0  0  0  0  0  0
  1 11  1  0
  2  1  2  0
  2  4  1  0
  3 10  2  0
  3  9  1  0
  4 15  2  0
  5 13  1  0
  7 15  1  0
  7  3  1  0
  8 14  1  0
 11  7  2  0
 13 12  1  0
 13  2  1  0
 14  6  1  0
 14  5  1  0
M  END
$$$$

     RDKit          3D

 12 13  0  0  0  0  0  0  0  0999 V2000
   41.5200   41.6620   30.9110 O   0  0  0  0  0  0  0  0  0  0  0  0
   37.9380   40.5700   29.6310 O   0  0  0  0  0  0  0  0  0  0  0  0
   38.8840   40.4120   30.6900 N   0  0  0  0  0  0  0  0  0  0  0  0
   39.8830   39.0530   26.8800 O   0  0  0  0  0  0  0  0  0  0  0  0
   40.3260   38.9430   29.2260 C   0  0  0  0  0  0  0  0  0  0  0  0
   38.9300   41.7220   27.7310 C   0  0  0  0  0  0  0  0  0  0  0  0
   41.4580   38.1540   29.0200 O   0  0  0  0  0  0  0  0  0  0  0  0
   41.2510   40.6170   30.9940 C   0  0  0  0  0  0  0  0  0  0  0  0
   38.4500   40.3440   28.2620 C   0  0  0  0  0  0  0  0  0  0  0  0
   40.1440   39.6680   30.5480 C   0  0  0  0  0  0  0  0  0  0  0  0
   38.1060   40.9650   26.9970 C   0  0  0  0  0  0  0  0  0  0  0  0
   39.6040   39.3680   28.0500 C   0  0  0  0  0  0  0  0  0  0  0  0
  1  8  2  0
  2  3  1  0
  4 12  2  0
  5  7  1  0
  5 10  1  0
  6  9  1  0
  9  2  1  0
 10  3  1  0
 10  8  1  0
 11  6  1  0
 11  9  1  0
 12  9  1  0
 12  5  1  0
M  END
$$$$

     RDKit          3D

 22 24  0  0  0  0  0  0  0  0999 V2000
   35.3040   36.4260   31.9950 C   0  0  0  0  0  0  0  0  0  0  0  0
   30.4170   35.9110   33.0960 N   0  0  0  0  0  0  0  0  0  0  0  0
   41.7490   41.6590   31.0620 N   0  0  0  0  0  0  0  0  0  0  0  0
   32.7000   35.9020   32.5000 C   0  0  0  0  0  0  0  0  0  0  0  0
   31.3430   36.0490   32.0200 C   0  0  0  0  0  0  0  0  0  0  0  0
   30.4470   35.5890   35.6170 N   0  0  0  0  0  0  0  0  0  0  0  0
   39.6720   37.1750   30.3430 C   0  0  0  0  0  0  0  0  0  0  0  0
   42.5410   39.9960   29.9320 O   0  0  0  0  0  0  0  0  0  0  0  0
   36.3740   37.1560   31.2920 N   0  0  0  0  0  0  0  0  0  0  0  0
   37.0080   35.2860   33.1010 N   0  0  0  0  0  0  0  0  0  0  0  0
   40.0340   37.7570   29.1480 C   0  0  0  0  0  0  0  0  0  0  0  0
   41.4790   40.6330   30.2880 C   0  0  0  0  0  0  0  0  0  0  0  0
   33.8340   36.3620   31.6290 C   0  0  0  0  0  0  0  0  0  0  0  0
   37.9140   35.9420   32.4830 C   0  0  0  0  0  0  0  0  0  0  0  0
   32.5550   35.5790   33.7200 C   0  0  0  0  0  0  0  0  0  0  0  0
   35.6780   35.5780   32.9200 C   0  0  0  0  0  0  0  0  0  0  0  0
   38.9240   37.8860   31.2740 C   0  0  0  0  0  0  0  0  0  0  0  0
   37.5950   37.0530   31.6280 C   0  0  0  0  0  0  0  0  0  0  0  0
   39.7790   39.1900   31.4030 C   0  0  0  0  0  0  0  0  0  0  0  0
   31.0330   35.6580   34.3420 C   0  0  0  0  0  0  0  0  0  0  0  0
   41.0860   37.5710   29.8510 C   0  0  0  0  0  0  0  0  0  0  0  0
   40.2780   40.0120   30.6160 N   0  0  0  0  0  0  0  0  0  0  0  0
  1 16  1  0
  2 20  1  0
  4 15  2  0
  5  4  1  0
  5  2  2  0
  7 17  1  0
  8 12  2  0
  9 18  1  0
  9  1  2  0
 11 21  1  0
 11  7  1  0
 12 22  1  0
 12  3  1  0
 13  1  1  0
 13  4  1  0
 14 10  1  0
 15 20  1  0
 16 10  2  0
 17 19  1  0
 17 18  1  0
 18 14  2  0
 20  6  1  0
 21  7  1  0
 22 19  1  0
M  END
$$$$

     RDKit          3D

 11 10  0  0  0  0  0  0  0  0999 V2000
   37.3290   38.6790   30.8610 C   0  0  0  0  0  0  0  0  0  0  0  0
   39.6010   35.9920   30.5790 O   0  0  0  0  0  0  0  0  0  0  0  0
   39.6460   39.1880   31.6590 C   0  0  0  0  0  0  0  0  0  0  0  0
   37.0700   36.4810   30.7190 O   0  0  0  0  0  0  0  0  0  0  0  0
   38.5100   41.3090   31.7440 O   0  0  0  0  0  0  0  0  0  0  0  0
   37.0580   39.4940   30.3630 O   0  0  0  0  0  0  0  0  0  0  0  0
   39.2390   37.0850   30.9350 C   0  0  0  0  0  0  0  0  0  0  0  0
   40.3440   38.1840   30.9120 C   0  0  0  0  0  0  0  0  0  0  0  0
   37.9570   37.4420   31.3240 C   0  0  0  0  0  0  0  0  0  0  0  0
   40.6440   41.3340   31.1080 C   0  0  0  0  0  0  0  0  0  0  0  0
   39.3740   40.5020   30.9540 C   0  0  0  0  0  0  0  0  0  0  0  0
  1  9  1  0
  2  7  2  0
  6  1  1  0
  7  9  1  0
  8  7  1  0
  8  3  1  0
  9  4  1  0
 11 10  1  0
 11  3  1  0
 11  5  1  0
M  END
$$$$

     RDKit          3D

 13 14  0  0  0  0  0  0  0  0999 V2000
   39.6250   39.5140   31.5720 N   0  0  0  0  0  0  0  0  0  0  0  0
   37.4660   38.1360   31.0780 C   0  0  0  0  0  0  0  0  0  0  0  0
   41.3340   39.9790   30.0290 C   0  0  0  0  0  0  0  0  0  0  0  0
   33.4180   36.8450   31.2730 C   0  0  0  0  0  0  0  0  0  0  0  0
   36.4250   39.0190   31.0110 C   0  0  0  0  0  0  0  0  0  0  0  0
   40.5290   39.2960   29.0840 C   0  0  0  0  0  0  0  0  0  0  0  0
   38.8320   38.8000   30.7540 C   0  0  0  0  0  0  0  0  0  0  0  0
   35.1500   38.6050   31.1100 C   0  0  0  0  0  0  0  0  0  0  0  0
   35.8700   36.4210   31.5370 C   0  0  0  0  0  0  0  0  0  0  0  0
   40.8710   40.3320   31.1110 N   0  0  0  0  0  0  0  0  0  0  0  0
   39.3380   38.6870   29.4650 C   0  0  0  0  0  0  0  0  0  0  0  0
   37.2380   36.8030   31.3820 C   0  0  0  0  0  0  0  0  0  0  0  0
   34.8550   37.2380   31.3870 C   0  0  0  0  0  0  0  0  0  0  0  0
  2 12  1  0
  3 10  1  0
  4 13  1  0
  5  2  2  0
  5  8  1  0
  6 11  2  0
  6  3  1  0
  7  2  1  0
  7  1  2  0
  8 13  2  0
 10  1  1  0
 11  7  1  0
 12  9  2  0
 13  9  1  0
M  END
$$$$

     RDKit          3D

 10  9  0  0  0  0  0  0  0  0999 V2000
   39.3340   39.4060   30.8260 N   0  0  0  0  0  0  0  0  0  0  0  0
   36.4270   36.1330   31.8760 O   0  0  0  0  0  0  0  0  0  0  0  0
   38.4400   38.4080   31.6890 C   0  0  0  0  0  0  0  0  0  0  0  0
   41.0600   38.8340   32.7960 O   0  0  0  0  0  0  0  0  0  0  0  0
   39.3400   37.2860   32.1390 C   0  0  0  0  0  0  0  0  0  0  0  0
   37.3470   37.9950   30.6700 C   0  0  0  0  0  0  0  0  0  0  0  0
   40.3410   37.8510   33.1070 C   0  0  0  0  0  0  0  0  0  0  0  0
   37.7700   38.8130   32.9600 F   0  0  0  0  0  0  0  0  0  0  0  0
   40.4740   37.3570   34.2410 O   0  0  0  0  0  0  0  0  0  0  0  0
   36.1230   37.3430   31.1720 C   0  0  0  0  0  0  0  0  0  0  0  0
  3  1  1  0
  3  5  1  0
  3  8  1  0
  4  7  2  0
  5  7  1  0
  6 10  1  0
  6  3  1  0
  7  9  1  0
 10  2  1  0
M  END
$$$$

     RDKit          3D

 13 14  0  0  0  0  0  0  0  0999 V2000
   36.6140   35.0070   32.8350 C   0  0  0  0  0  0  0  0  0  0  0  0
   37.4240   38.1580   30.7930 C   0  0  0  0  0  0  0  0  0  0  0  0
   35.2050   35.2100   32.9500 C   0  0  0  0  0  0  0  0  0  0  0  0
   37.4280   36.0470   32.3660 C   0  0  0  0  0  0  0  0  0  0  0  0
   39.6570   36.2530   29.7270 O   0  0  0  0  0  0  0  0  0  0  0  0
   40.8830   37.8710   28.7850 O   0  0  0  0  0  0  0  0  0  0  0  0
   34.5810   36.3280   32.4160 C   0  0  0  0  0  0  0  0  0  0  0  0
   38.3650   39.3700   30.8400 C   0  0  0  0  0  0  0  0  0  0  0  0
   39.9420   37.4550   29.6760 C   0  0  0  0  0  0  0  0  0  0  0  0
   39.5110   38.4520   30.6830 C   0  0  0  0  0  0  0  0  0  0  0  0
   39.6670   39.9050   30.5610 N   0  0  0  0  0  0  0  0  0  0  0  0
   36.7810   37.1540   31.6960 C   0  0  0  0  0  0  0  0  0  0  0  0
   35.3680   37.3150   31.7900 C   0  0  0  0  0  0  0  0  0  0  0  0
  1  3  1  0
  2 12  1  0
  4  1  2  0
  6  9  2  0
  7  3  2  0
  8  2  1  0
  9  5  1  0
 10  9  1  0
 10  8  1  0
 11 10  1  0
 11  8  1  0
 12 13  2  0
 12  4  1  0
 13  7  1  0
M  END
$$$$

     RDKit          3D

 19 19  0  0  0  0  0  0  0  0999 V2000
   39.4750   39.7780   29.7240 S   0  0  0  0  0  0  0  0  0  0  0  0
   36.4110   36.2770   32.4680 N   0  0  0  0  0  0  0  0  0  0  0  0
   37.0810   42.4710   30.4800 C   0  0  0  0  0  0  0  0  0  0  0  0
   38.0100   40.1780   30.1640 C   0  0  0  0  0  0  0  0  0  0  0  0
   39.0810   38.0030   31.8690 C   0  0  0  0  0  0  0  0  0  0  0  0
   38.4270   35.5470   31.2660 C   0  0  0  0  0  0  0  0  0  0  0  0
   37.5380   41.3340   29.6360 C   0  0  0  0  0  0  0  0  0  0  0  0
   35.9170   34.9250   32.6800 C   0  0  0  0  0  0  0  0  0  0  0  0
   34.9840   34.6820   33.3820 O   0  0  0  0  0  0  0  0  0  0  0  0
   40.3470   40.1320   26.4870 C   0  0  0  0  0  0  0  0  0  0  0  0
   40.7670   41.1410   27.4910 C   0  0  0  0  0  0  0  0  0  0  0  0
   37.4710   36.6040   31.8220 C   0  0  0  0  0  0  0  0  0  0  0  0
   42.8170   42.0910   28.4810 C   0  0  0  0  0  0  0  0  0  0  0  0
   37.5180   39.4760   31.2550 C   0  0  0  0  0  0  0  0  0  0  0  0
   37.7580   38.0230   31.5710 C   0  0  0  0  0  0  0  0  0  0  0  0
   39.7240   40.7860   28.4990 C   0  0  0  0  0  0  0  0  0  0  0  0
   38.4360   41.8900   28.3590 S   0  0  0  0  0  0  0  0  0  0  0  0
   42.1150   40.8070   28.0620 C   0  0  0  0  0  0  0  0  0  0  0  0
   41.1910   42.1970   26.3720 C   0  0  0  0  0  0  0  0  0  0  0  0
  1  4  1  0
  2  8  1  0
  4 14  1  0
  6 12  1  0
  7  4  1  0
  7  3  1  0
  8  9  2  0
 10 11  1  0
 11 18  1  0
 12  2  2  3
 14 15  1  0
 15 12  1  0
 15  5  2  0
 16 11  1  0
 16  1  1  0
 17 16  1  0
 17  7  1  0
 18 13  1  0
 19 11  1  0
M  END
$$$$

     RDKit          3D

 16 16  0  0  0  0  0  0  0  0999 V2000
   39.9940   41.4360   31.5760 C   0  0  0  0  0  0  0  0  0  0  0  0
   32.1080   35.7360   32.4480 C   0  0  0  0  0  0  0  0  0  0  0  0
   33.3990   36.3210   32.0770 N   0  0  0  0  0  0  0  0  0  0  0  0
   37.5590   34.7970   32.3990 C   0  0  0  0  0  0  0  0  0  0  0  0
   40.8740   38.1510   30.3240 C   0  0  0  0  0  0  0  0  0  0  0  0
   35.7770   36.7380   32.5130 C   0  0  0  0  0  0  0  0  0  0  0  0
   34.6010   35.7690   32.5020 C   0  0  0  0  0  0  0  0  0  0  0  0
   38.1520   37.1530   31.8420 C   0  0  0  0  0  0  0  0  0  0  0  0
   34.6440   34.5970   32.7870 O   0  0  0  0  0  0  0  0  0  0  0  0
   39.0990   37.5200   32.9880 C   0  0  0  0  0  0  0  0  0  0  0  0
   37.1280   36.2530   32.5920 C   0  0  0  0  0  0  0  0  0  0  0  0
   40.9470   39.0020   29.2160 N   0  0  0  0  0  0  0  0  0  0  0  0
   40.0250   38.5710   32.8070 C   0  0  0  0  0  0  0  0  0  0  0  0
   40.2220   40.1960   30.8170 C   0  0  0  0  0  0  0  0  0  0  0  0
   40.3440   38.9000   31.3390 C   0  0  0  0  0  0  0  0  0  0  0  0
   40.5580   40.1690   29.5190 N   0  0  0  0  0  0  0  0  0  0  0  0
  3  2  1  0
  3  7  1  0
  5 15  1  0
  6 11  1  0
  7  6  1  0
  7  9  2  0
  8 11  1  0
  8 10  1  0
 11  4  1  0
 12 16  1  0
 12  5  2  0
 13 10  1  0
 14 15  1  0
 14  1  1  0
 15 13  1  0
 16 14  2  0
M  END
$$$$

     RDKit          3D

 30 31  0  0  0  0  0  0  0  0999 V2000
   36.2570   32.8810   33.5270 C   0  0  0  0  0  0  0  0  0  0  0  0
   36.9370   39.3830   29.4060 C   0  0  0  0  0  0  0  0  0  0  0  0
   36.3820   38.1340   31.9140 O   0  0  0  0  0  0  0  0  0  0  0  0
   35.2040   35.6800   31.9180 C   0  0  0  0  0  0  0  0  0  0  0  0
   34.3640   34.6360   32.1240 O   0  0  0  0  0  0  0  0  0  0  0  0
   37.4660   36.1090   31.4810 C   0  0  0  0  0  0  0  0  0  0  0  0
   38.8990   40.1410   25.8720 C   0  0  0  0  0  0  0  0  0  0  0  0
   39.3370   41.0480   25.2800 N   0  0  0  0  0  0  0  0  0  0  0  0
   36.7590   37.4020   31.0380 C   0  0  0  0  0  0  0  0  0  0  0  0
   32.7130   36.2020   32.4250 C   0  0  0  0  0  0  0  0  0  0  0  0
   40.3590   34.0400   32.1800 O   0  0  0  0  0  0  0  0  0  0  0  0
   31.1730   36.0020   34.3310 C   0  0  0  0  0  0  0  0  0  0  0  0
   38.9960   39.2440   28.2880 C   0  0  0  0  0  0  0  0  0  0  0  0
   34.0380   35.6540   32.8910 C   0  0  0  0  0  0  0  0  0  0  0  0
   38.8380   35.7830   31.8520 C   0  0  0  0  0  0  0  0  0  0  0  0
   31.7470   35.3200   33.1290 C   0  0  0  0  0  0  0  0  0  0  0  0
   37.6710   39.4660   28.3090 C   0  0  0  0  0  0  0  0  0  0  0  0
   36.5760   35.2290   32.4080 C   0  0  0  0  0  0  0  0  0  0  0  0
   36.3430   33.6330   32.3590 C   0  0  0  0  0  0  0  0  0  0  0  0
   36.9940   37.9600   29.7420 C   0  0  0  0  0  0  0  0  0  0  0  0
   36.8290   39.4480   27.1790 O   0  0  0  0  0  0  0  0  0  0  0  0
   38.5980   40.1930   27.4760 C   0  0  0  0  0  0  0  0  0  0  0  0
   40.2120   36.6600   30.0200 O   0  0  0  0  0  0  0  0  0  0  0  0
   31.9020   35.6270   35.5650 C   0  0  0  0  0  0  0  0  0  0  0  0
   31.2790   34.8570   36.3280 O   0  0  0  0  0  0  0  0  0  0  0  0
   33.1280   35.8660   35.7070 O   0  0  0  0  0  0  0  0  0  0  0  0
   39.8840   34.5590   29.9570 O   0  0  0  0  0  0  0  0  0  0  0  0
   39.6510   35.6980   30.5090 C   0  0  0  0  0  0  0  0  0  0  0  0
   39.0530   34.3150   32.5930 C   0  0  0  0  0  0  0  0  0  0  0  0
   36.3250   40.3370   29.8980 O   0  0  0  0  0  0  0  0  0  0  0  0
  2 20  1  0
  2 30  2  0
  4  5  1  0
  4 18  1  0
  4 14  1  0
  5 14  1  0
  6  9  1  0
  6 15  1  0
  6 18  1  0
  8  7  2  0
  9  3  2  0
 10 16  1  0
 11 29  1  0
 12 24  1  0
 13 17  1  0
 14 10  1  0
 15 29  1  0
 16 12  1  0
 17 21  1  0
 17  2  1  0
 18 19  1  0
 19  1  1  0
 20  9  1  0
 22  7  1  0
 22 13  1  0
 22 17  1  0
 23 28  1  0
 24 26  2  0
 24 25  1  0
 27 28  2  0
 28 15  1  0
M  END
$$$$

     RDKit          3D

 22 25  0  0  0  0  0  0  0  0999 V2000
   38.0770   37.7940   31.1970 C   0  0  0  0  0  0  0  0  0  0  0  0
   39.1650   37.3530   30.0800 C   0  0  0  0  0  0  0  0  0  0  0  0
   39.6430   38.3290   27.6390 S   0  0  0  0  0  0  0  0  0  0  0  0
   35.0390   35.5720   33.0650 O   0  0  0  0  0  0  0  0  0  0  0  0
   39.7360   36.3310   29.9760 O   0  0  0  0  0  0  0  0  0  0  0  0
   37.6810   41.1460   25.4460 C   0  0  0  0  0  0  0  0  0  0  0  0
   37.0550   37.0050   32.1530 C   0  0  0  0  0  0  0  0  0  0  0  0
   38.2460   40.8980   29.0700 N   0  0  0  0  0  0  0  0  0  0  0  0
   35.5610   34.3390   32.5280 C   0  0  0  0  0  0  0  0  0  0  0  0
   37.0700   41.7880   24.5600 O   0  0  0  0  0  0  0  0  0  0  0  0
   39.1220   40.3060   31.1430 O   0  0  0  0  0  0  0  0  0  0  0  0
   37.6300   35.7080   32.0330 O   0  0  0  0  0  0  0  0  0  0  0  0
   38.5270   39.9930   25.6520 C   0  0  0  0  0  0  0  0  0  0  0  0
   37.6750   41.6310   26.7730 N   0  0  0  0  0  0  0  0  0  0  0  0
   39.4070   38.6360   29.2380 C   0  0  0  0  0  0  0  0  0  0  0  0
   38.2890   40.8310   27.6740 C   0  0  0  0  0  0  0  0  0  0  0  0
   37.4160   38.8940   30.4730 C   0  0  0  0  0  0  0  0  0  0  0  0
   36.8020   34.6280   31.6590 C   0  0  0  0  0  0  0  0  0  0  0  0
   38.5370   39.7020   30.0030 C   0  0  0  0  0  0  0  0  0  0  0  0
   36.3060   39.6040   31.1310 O   0  0  0  0  0  0  0  0  0  0  0  0
   35.5070   36.8160   32.4740 C   0  0  0  0  0  0  0  0  0  0  0  0
   38.8190   39.7290   26.9950 C   0  0  0  0  0  0  0  0  0  0  0  0
  1  2  1  0
  1  7  1  0
  5  2  2  0
  6 13  1  0
  6 14  1  0
  7 21  1  0
  8 19  1  0
  9  4  1  0
 10  6  2  0
 12  7  1  0
 13 22  2  0
 14 16  1  0
 15  3  1  0
 15 19  1  0
 15  2  1  0
 16  8  2  0
 17 20  1  0
 17  1  1  0
 18 12  1  0
 18  9  1  0
 19 17  1  0
 19 11  1  0
 21  4  1  0
 22  3  1  0
 22 16  1  0
M  END
$$$$

     RDKit          3D

 13 13  0  0  0  0  0  0  0  0999 V2000
   37.4140   35.8770   32.1070 C   0  0  0  0  0  0  0  0  0  0  0  0
   35.5370   34.7830   32.9650 O   0  0  0  0  0  0  0  0  0  0  0  0
   38.0220   37.1830   32.4350 C   0  0  0  0  0  0  0  0  0  0  0  0
   35.8550   38.9440   29.9770 O   0  0  0  0  0  0  0  0  0  0  0  0
   36.9030   39.9430   29.7140 C   0  0  0  0  0  0  0  0  0  0  0  0
   39.7420   38.4870   31.3280 C   0  0  0  0  0  0  0  0  0  0  0  0
   36.0970   38.0040   31.0240 C   0  0  0  0  0  0  0  0  0  0  0  0
   37.5240   38.1830   31.4230 C   0  0  0  0  0  0  0  0  0  0  0  0
   35.2030   36.8490   31.6620 C   0  0  0  0  0  0  0  0  0  0  0  0
   36.0450   36.0710   32.6670 C   0  0  0  0  0  0  0  0  0  0  0  0
   38.6850   38.0880   30.3970 C   0  0  0  0  0  0  0  0  0  0  0  0
   40.4130   39.1990   31.8790 O   0  0  0  0  0  0  0  0  0  0  0  0
   33.9990   36.7410   31.5240 O   0  0  0  0  0  0  0  0  0  0  0  0
  1  3  1  0
  1 10  1  0
  5  4  1  0
  6 12  1  0
  7  4  1  0
  7  8  1  0
  7  9  1  0
  8 11  1  0
  8  3  1  0
  9 10  1  0
 10  2  1  0
 11  6  1  0
 13  9  2  0
M  END
$$$$

     RDKit          3D

  9  8  0  0  0  0  0  0  0  0999 V2000
   40.9310   42.9090   29.0460 O   0  0  0  0  0  0  0  0  0  0  0  0
   40.5060   41.6830   29.0060 C   0  0  0  0  0  0  0  0  0  0  0  0
   40.8540   40.8540   27.7920 C   0  0  0  0  0  0  0  0  0  0  0  0
   40.0910   39.5830   27.5480 C   0  0  0  0  0  0  0  0  0  0  0  0
   40.1560   41.1310   30.0530 O   0  0  0  0  0  0  0  0  0  0  0  0
   41.2410   40.9880   25.6030 O   0  0  0  0  0  0  0  0  0  0  0  0
   39.4890   41.9120   26.1190 O   0  0  0  0  0  0  0  0  0  0  0  0
   38.6040   39.7790   27.4170 C   0  0  0  0  0  0  0  0  0  0  0  0
   40.5290   41.3970   26.5740 C   0  0  0  0  0  0  0  0  0  0  0  0
  2  1  2  0
  2  5  1  0
  3  2  1  0
  4  3  1  0
  6  9  2  0
  7  9  1  0
  8  4  1  0
  9  3  1  0
M  END
$$$$
