
     RDKit          3D

 23 25  0  0  0  0  0  0  0  0999 V2000
   33.1480   34.7550   36.0050 O   0  0  0  0  0  0  0  0  0  0  0  0
   42.4900   34.9290   31.4470 O   0  0  0  0  0  0  0  0  0  0  0  0
   39.7470   34.6350   33.3640 O   0  0  0  0  0  0  0  0  0  0  0  0
   38.4950   34.3850   32.8680 C   0  0  0  0  0  0  0  0  0  0  0  0
   35.0070   33.9570   34.5270 C   0  0  0  0  0  0  0  0  0  0  0  0
   40.1810   35.9460   32.9410 C   0  0  0  0  0  0  0  0  0  0  0  0
   41.4930   36.2270   33.0380 C   0  0  0  0  0  0  0  0  0  0  0  0
   44.1970   35.8420   32.6880 C   0  0  0  0  0  0  0  0  0  0  0  0
   36.6630   35.6660   33.4720 C   0  0  0  0  0  0  0  0  0  0  0  0
   38.8230   36.7810   32.7990 C   0  0  0  0  0  0  0  0  0  0  0  0
   37.9110   35.7750   32.9800 C   0  0  0  0  0  0  0  0  0  0  0  0
   33.1020   35.1390   33.7690 O   0  0  0  0  0  0  0  0  0  0  0  0
   44.0380   39.2210   35.5810 C   0  0  0  0  0  0  0  0  0  0  0  0
   44.1340   38.2380   34.5400 C   0  0  0  0  0  0  0  0  0  0  0  0
   45.4460   38.0680   32.5610 C   0  0  0  0  0  0  0  0  0  0  0  0
   41.8580   37.7160   33.2230 C   0  0  0  0  0  0  0  0  0  0  0  0
   33.6210   34.7610   34.7270 C   0  0  0  0  0  0  0  0  0  0  0  0
   43.2750   37.9480   33.4730 C   0  0  0  0  0  0  0  0  0  0  0  0
   40.9910   38.5330   33.1920 O   0  0  0  0  0  0  0  0  0  0  0  0
   45.5400   38.1880   34.0720 C   0  0  0  0  0  0  0  0  0  0  0  0
   42.6960   35.5370   32.3680 C   0  0  0  0  0  0  0  0  0  0  0  0
   35.8330   35.2180   34.4300 C   0  0  0  0  0  0  0  0  0  0  0  0
   44.2050   37.2840   32.3240 C   0  0  0  0  0  0  0  0  0  0  0  0
  2 21  2  0
  4 11  1  0
  4  3  1  0
  5 17  1  0
  6 10  1  0
  6  7  1  0
  6  3  1  0
  7 21  1  0
  7 16  1  0
  9 22  1  0
 10 11  1  0
 11  9  1  0
 12 17  2  0
 14 13  1  0
 15 20  1  0
 17  1  1  0
 18 16  1  0
 18 14  1  0
 19 16  2  0
 20 14  1  0
 21  8  1  0
 22  5  1  0
 23 15  1  0
 23  8  1  0
 23 18  1  0
M  END
$$$$

     RDKit          3D

 17 18  0  0  0  0  0  0  0  0999 V2000
   39.0950   33.6940   34.6490 C   0  0  0  0  0  0  0  0  0  0  0  0
   41.9000   35.9010   39.4640 N   0  0  0  0  0  0  0  0  0  0  0  0
   41.7910   36.7660   33.3000 C   0  0  0  0  0  0  0  0  0  0  0  0
   40.5080   33.7320   35.1600 C   0  0  0  0  0  0  0  0  0  0  0  0
   41.5010   37.9530   32.8030 O   0  0  0  0  0  0  0  0  0  0  0  0
   43.3540   33.7620   33.4990 O   0  0  0  0  0  0  0  0  0  0  0  0
   41.9010   35.7320   37.9160 C   0  0  0  0  0  0  0  0  0  0  0  0
   38.0410   33.0500   35.1780 C   0  0  0  0  0  0  0  0  0  0  0  0
   41.0280   36.1080   34.3080 C   0  0  0  0  0  0  0  0  0  0  0  0
   42.7510   35.8040   32.9850 N   0  0  0  0  0  0  0  0  0  0  0  0
   41.3200   34.7470   34.4260 C   0  0  0  0  0  0  0  0  0  0  0  0
   42.5710   34.6670   33.5770 C   0  0  0  0  0  0  0  0  0  0  0  0
   36.9440   32.8920   36.1420 N   0  0  0  0  0  0  0  0  0  0  0  0
   40.2950   34.2920   36.7520 S   0  0  0  0  0  0  0  0  0  0  0  0
   41.1450   35.1520   36.8720 C   0  0  0  0  0  0  0  0  0  0  0  0
   36.6890   32.7190   37.3940 C   0  0  0  0  0  0  0  0  0  0  0  0
   38.1640   34.5430   34.9750 O   0  0  0  0  0  0  0  0  0  0  0  0
  1 17  1  0
  1  4  1  0
  1  8  1  0
  3  9  1  0
  4 14  1  0
  5  3  2  0
  6 12  2  0
  7  2  1  0
  8 13  1  0
  9 11  2  0
 10  3  1  0
 10 12  1  0
 11  4  1  0
 12 11  1  0
 13 16  2  0
 14 15  1  0
 15  7  1  0
 17  8  1  0
M  END
$$$$

     RDKit          3D

 12 11  0  0  0  0  0  0  0  0999 V2000
   42.2960   36.2740   33.3020 C   0  0  0  0  0  0  0  0  0  0  0  0
   42.2900   35.0950   34.4030 C   0  0  0  0  0  0  0  0  0  0  0  0
   37.1750   34.4870   33.0220 C   0  0  0  0  0  0  0  0  0  0  0  0
   39.9450   33.5580   35.0590 N   0  0  0  0  0  0  0  0  0  0  0  0
   37.9400   35.0410   34.2560 C   0  0  0  0  0  0  0  0  0  0  0  0
   42.8130   35.8680   35.7550 C   0  0  0  0  0  0  0  0  0  0  0  0
   40.9970   33.9320   33.8760 C   0  0  0  0  0  0  0  0  0  0  0  0
   40.5170   33.7530   36.2610 C   0  0  0  0  0  0  0  0  0  0  0  0
   41.9650   36.9660   36.1980 O   0  0  0  0  0  0  0  0  0  0  0  0
   44.1230   36.4100   35.5850 O   0  0  0  0  0  0  0  0  0  0  0  0
   38.4860   33.9800   35.2050 C   0  0  0  0  0  0  0  0  0  0  0  0
   40.7530   34.1280   37.3270 O   0  0  0  0  0  0  0  0  0  0  0  0
  2  1  1  0
  2  6  1  0
  3  5  1  0
  4 11  1  0
  4  8  1  0
  5 11  1  0
  6  9  1  0
  7  2  1  0
  7  4  1  0
  8 12  1  0
 10  6  1  0
M  END
$$$$

     RDKit          3D

 14 14  0  0  0  0  0  0  0  0999 V2000
   42.6710   35.7600   36.7280 C   0  0  0  0  0  0  0  0  0  0  0  0
   39.7980   36.3940   34.3810 C   0  0  0  0  0  0  0  0  0  0  0  0
   39.9730   32.9120   33.2530 C   0  0  0  0  0  0  0  0  0  0  0  0
   41.0420   34.3460   35.2150 C   0  0  0  0  0  0  0  0  0  0  0  0
   38.6560   37.6140   33.9700 S   0  0  0  0  0  0  0  0  0  0  0  0
   40.6670   34.2340   33.7210 C   0  0  0  0  0  0  0  0  0  0  0  0
   39.9130   35.4050   33.4900 O   0  0  0  0  0  0  0  0  0  0  0  0
   41.5850   35.6630   35.6960 C   0  0  0  0  0  0  0  0  0  0  0  0
   41.3260   38.8600   35.7130 O   0  0  0  0  0  0  0  0  0  0  0  0
   40.7160   37.8920   36.3810 C   0  0  0  0  0  0  0  0  0  0  0  0
   40.6030   36.7400   35.4180 N   0  0  0  0  0  0  0  0  0  0  0  0
   42.3760   35.8100   38.0980 O   0  0  0  0  0  0  0  0  0  0  0  0
   41.9560   33.3180   35.3200 O   0  0  0  0  0  0  0  0  0  0  0  0
   42.1300   34.5410   32.8770 C   0  0  0  0  0  0  0  0  0  0  0  0
  1 12  1  0
  2 11  1  0
  3  6  1  0
  4 13  1  0
  4  8  1  0
  5  2  2  0
  6  4  1  0
  7  6  1  0
  7  2  1  0
  8  1  1  0
  9 10  1  0
 11  8  1  0
 11 10  1  0
 14  6  1  0
M  END
$$$$

     RDKit          3D

 20 21  0  0  0  0  0  0  0  0999 V2000
   41.0050   36.2420   32.5490 C   0  0  0  0  0  0  0  0  0  0  0  0
   41.7870   37.4910   32.6790 C   0  0  0  0  0  0  0  0  0  0  0  0
   38.2150   32.2220   36.8240 C   0  0  0  0  0  0  0  0  0  0  0  0
   40.3280   36.2200   33.8560 C   0  0  0  0  0  0  0  0  0  0  0  0
   39.1290   33.8470   33.4950 C   0  0  0  0  0  0  0  0  0  0  0  0
   34.0200   31.1790   35.8040 C   0  0  0  0  0  0  0  0  0  0  0  0
   41.7200   37.8320   34.1240 C   0  0  0  0  0  0  0  0  0  0  0  0
   38.4400   33.0690   35.7690 C   0  0  0  0  0  0  0  0  0  0  0  0
   42.6560   38.8860   34.6230 C   0  0  0  0  0  0  0  0  0  0  0  0
   38.6210   32.7240   34.4050 C   0  0  0  0  0  0  0  0  0  0  0  0
   34.2880   29.5820   37.4290 C   0  0  0  0  0  0  0  0  0  0  0  0
   40.7680   37.1020   34.7460 C   0  0  0  0  0  0  0  0  0  0  0  0
   43.8800   38.5140   34.6410 O   0  0  0  0  0  0  0  0  0  0  0  0
   35.5730   30.2940   37.6570 C   0  0  0  0  0  0  0  0  0  0  0  0
   33.9240   29.7580   36.0230 O   0  0  0  0  0  0  0  0  0  0  0  0
   39.2360   35.1680   34.1690 C   0  0  0  0  0  0  0  0  0  0  0  0
   35.5920   31.4290   35.5500 C   0  0  0  0  0  0  0  0  0  0  0  0
   36.0590   31.1660   36.5360 N   0  0  0  0  0  0  0  0  0  0  0  0
   37.3180   31.2500   36.7340 O   0  0  0  0  0  0  0  0  0  0  0  0
   42.2460   39.7670   35.3630 O   0  0  0  0  0  0  0  0  0  0  0  0
  1  2  1  0
  1  4  1  0
  2  7  1  0
  4 16  1  0
  4 12  1  0
  5 16  1  0
  5 10  1  0
  6 15  1  0
  7  9  1  0
  7 12  1  0
  8  3  1  0
  9 13  2  0
  9 20  1  0
 10  8  2  3
 11 14  1  0
 15 11  1  0
 17  6  1  0
 17 18  1  0
 18 19  1  0
 18 14  1  0
 19  3  1  0
M  END
$$$$

     RDKit          3D

 30 34  0  0  0  0  0  0  0  0999 V2000
   35.0960   28.6260   38.8130 C   0  0  0  0  0  0  0  0  0  0  0  0
   39.7560   37.6240   33.5830 C   0  0  0  0  0  0  0  0  0  0  0  0
   35.8000   31.9010   37.4420 C   0  0  0  0  0  0  0  0  0  0  0  0
   33.4580   31.3880   37.1480 C   0  0  0  0  0  0  0  0  0  0  0  0
   35.2300   33.6910   35.8340 N   0  0  0  0  0  0  0  0  0  0  0  0
   38.8340   36.8300   33.4620 C   0  0  0  0  0  0  0  0  0  0  0  0
   41.0780   35.0920   32.4640 C   0  0  0  0  0  0  0  0  0  0  0  0
   35.5120   29.8640   38.3750 C   0  0  0  0  0  0  0  0  0  0  0  0
   34.9530   32.7630   36.8410 C   0  0  0  0  0  0  0  0  0  0  0  0
   37.3370   33.6220   34.4370 C   0  0  0  0  0  0  0  0  0  0  0  0
   37.0010   35.1570   34.2350 C   0  0  0  0  0  0  0  0  0  0  0  0
   38.1440   35.8360   34.1260 C   0  0  0  0  0  0  0  0  0  0  0  0
   43.7870   37.8710   27.7700 O   0  0  0  0  0  0  0  0  0  0  0  0
   44.7030   38.2820   28.6860 P   0  0  0  0  0  0  0  0  0  0  0  0
   36.0140   32.9690   34.7860 C   0  0  0  0  0  0  0  0  0  0  0  0
   32.8630   29.5340   39.4760 C   0  0  0  0  0  0  0  0  0  0  0  0
   45.1580   39.0080   27.3230 C   0  0  0  0  0  0  0  0  0  0  0  0
   34.8570   30.7600   37.3100 C   0  0  0  0  0  0  0  0  0  0  0  0
   42.7500   36.5530   31.5710 O   0  0  0  0  0  0  0  0  0  0  0  0
   41.9260   38.3560   33.3960 O   0  0  0  0  0  0  0  0  0  0  0  0
   34.2600   27.5620   39.5360 C   0  0  0  0  0  0  0  0  0  0  0  0
   44.5440   37.0200   30.0890 C   0  0  0  0  0  0  0  0  0  0  0  0
   33.3340   28.4700   40.4120 C   0  0  0  0  0  0  0  0  0  0  0  0
   36.1280   35.5760   33.0530 C   0  0  0  0  0  0  0  0  0  0  0  0
   43.5170   37.6490   31.0840 C   0  0  0  0  0  0  0  0  0  0  0  0
   33.5960   28.3660   38.7390 C   0  0  0  0  0  0  0  0  0  0  0  0
   44.5500   39.5290   29.5790 O   0  0  0  0  0  0  0  0  0  0  0  0
   33.7230   32.7860   37.3950 N   0  0  0  0  0  0  0  0  0  0  0  0
   41.4530   36.4810   32.0270 C   0  0  0  0  0  0  0  0  0  0  0  0
   40.9920   37.5900   32.9630 C   0  0  0  0  0  0  0  0  0  0  0  0
  1  8  1  0
  1 21  1  0
  4 18  1  0
  4 28  1  0
  5  9  1  0
  6  2  1  0
  6 12  1  0
  9 28  2  0
  9  3  1  0
 10 15  1  0
 11 24  1  0
 11 10  1  0
 12 11  1  0
 13 14  1  0
 14 27  2  0
 14 22  1  0
 15  5  1  0
 16 23  1  0
 17 13  1  0
 17 14  1  0
 18  3  1  0
 18  8  1  0
 19 29  1  0
 21 23  1  0
 22 25  1  0
 25 19  1  0
 26  1  1  0
 26 16  1  0
 26 21  1  0
 26 23  1  0
 29  7  1  0
 29 30  1  0
 30 20  1  0
 30  2  2  3
M  END
$$$$

     RDKit          3D

  8  8  0  0  0  0  0  0  0  0999 V2000
   38.3590   34.3930   33.6450 C   0  0  0  0  0  0  0  0  0  0  0  0
   37.1140   35.2690   33.6300 O   0  0  0  0  0  0  0  0  0  0  0  0
   40.5160   33.1550   36.1210 O   0  0  0  0  0  0  0  0  0  0  0  0
   38.8930   34.7090   35.0190 C   0  0  0  0  0  0  0  0  0  0  0  0
   39.7810   34.1390   36.0500 C   0  0  0  0  0  0  0  0  0  0  0  0
   39.1670   34.5280   37.1720 O   0  0  0  0  0  0  0  0  0  0  0  0
   39.2680   33.4080   33.1040 C   0  0  0  0  0  0  0  0  0  0  0  0
   37.3590   34.5420   32.4940 C   0  0  0  0  0  0  0  0  0  0  0  0
  1  7  1  0
  1  4  1  0
  2  1  1  0
  4  5  1  0
  5  3  2  0
  5  6  1  0
  8  2  1  0
  8  1  1  0
M  END
$$$$

     RDKit          3D

 13 14  0  0  0  0  0  0  0  0999 V2000
   42.7090   37.8450   33.8160 N   0  0  0  0  0  0  0  0  0  0  0  0
   40.1200   34.9920   34.2490 C   0  0  0  0  0  0  0  0  0  0  0  0
   43.3480   36.5250   34.6550 N   0  0  0  0  0  0  0  0  0  0  0  0
   35.3110   33.6470   35.2900 C   0  0  0  0  0  0  0  0  0  0  0  0
   33.5790   33.9180   35.2210 Cl  0  0  0  0  0  0  0  0  0  0  0  0
   39.5970   34.3600   35.2290 C   0  0  0  0  0  0  0  0  0  0  0  0
   40.9220   36.1750   34.3320 C   0  0  0  0  0  0  0  0  0  0  0  0
   38.1260   33.8490   35.4900 C   0  0  0  0  0  0  0  0  0  0  0  0
   42.1100   36.6880   34.2510 C   0  0  0  0  0  0  0  0  0  0  0  0
   37.3570   32.6520   36.1610 C   0  0  0  0  0  0  0  0  0  0  0  0
   36.0930   33.7890   34.1700 C   0  0  0  0  0  0  0  0  0  0  0  0
   35.9690   33.1620   36.5440 C   0  0  0  0  0  0  0  0  0  0  0  0
   37.4600   33.8380   34.2200 C   0  0  0  0  0  0  0  0  0  0  0  0
  1  9  2  0
  1  3  1  0
  2  7  1  0
  2  6  1  0
  4  5  1  0
  4 12  1  0
  8  6  1  0
  8 10  1  0
  9  7  1  0
  9  3  1  0
 10 12  1  0
 11 13  2  0
 11  4  1  0
 13  8  1  0
M  END
$$$$

     RDKit          3D

  8  7  0  0  0  0  0  0  0  0999 V2000
   38.9010   35.3900   34.5420 N   0  0  0  0  0  0  0  0  0  0  0  0
   39.3180   33.1550   34.2580 C   0  0  0  0  0  0  0  0  0  0  0  0
   37.5400   34.5110   33.2440 C   0  0  0  0  0  0  0  0  0  0  0  0
   38.4200   34.1640   33.8560 C   0  0  0  0  0  0  0  0  0  0  0  0
   35.1440   32.0290   36.1060 C   0  0  0  0  0  0  0  0  0  0  0  0
   35.7730   32.5300   35.2110 C   0  0  0  0  0  0  0  0  0  0  0  0
   36.4440   33.6840   35.0820 O   0  0  0  0  0  0  0  0  0  0  0  0
   36.2170   34.5560   34.0570 C   0  0  0  0  0  0  0  0  0  0  0  0
  3  4  1  0
  3  8  1  0
  4  2  1  0
  4  1  1  0
  6  5  2  0
  7  6  1  0
  8  7  1  0
M  END
$$$$

     RDKit          3D

 24 25  0  0  0  0  0  0  0  0999 V2000
   43.5410   37.5610   31.2080 C   0  0  0  0  0  0  0  0  0  0  0  0
   32.5170   33.5700   38.7360 C   0  0  0  0  0  0  0  0  0  0  0  0
   38.5310   33.1810   34.4860 C   0  0  0  0  0  0  0  0  0  0  0  0
   37.7480   34.2830   34.4050 O   0  0  0  0  0  0  0  0  0  0  0  0
   44.5140   38.7010   32.7970 C   0  0  0  0  0  0  0  0  0  0  0  0
   34.5050   32.6300   35.3320 S   0  0  0  0  0  0  0  0  0  0  0  0
   32.8200   33.5390   37.4870 O   0  0  0  0  0  0  0  0  0  0  0  0
   41.7500   36.4650   34.3780 C   0  0  0  0  0  0  0  0  0  0  0  0
   39.5360   35.3130   34.6480 N   0  0  0  0  0  0  0  0  0  0  0  0
   39.5940   33.9520   35.1940 C   0  0  0  0  0  0  0  0  0  0  0  0
   36.0280   32.8780   34.8160 N   0  0  0  0  0  0  0  0  0  0  0  0
   44.6450   38.2400   31.7110 N   0  0  0  0  0  0  0  0  0  0  0  0
   42.7240   37.2090   33.4820 C   0  0  0  0  0  0  0  0  0  0  0  0
   36.7740   31.7510   35.2270 C   0  0  0  0  0  0  0  0  0  0  0  0
   40.5990   35.0660   32.7410 O   0  0  0  0  0  0  0  0  0  0  0  0
   38.2290   31.8980   35.2540 C   0  0  0  0  0  0  0  0  0  0  0  0
   32.2920   34.2000   36.3370 C   0  0  0  0  0  0  0  0  0  0  0  0
   40.6040   35.6640   33.8300 C   0  0  0  0  0  0  0  0  0  0  0  0
   43.7310   38.0120   33.8910 C   0  0  0  0  0  0  0  0  0  0  0  0
   34.0740   34.0620   34.7960 C   0  0  0  0  0  0  0  0  0  0  0  0
   36.3860   34.2480   34.4860 C   0  0  0  0  0  0  0  0  0  0  0  0
   31.2100   34.8070   36.1930 O   0  0  0  0  0  0  0  0  0  0  0  0
   33.2980   34.9730   35.6100 C   0  0  0  0  0  0  0  0  0  0  0  0
   42.5450   37.1210   32.0270 C   0  0  0  0  0  0  0  0  0  0  0  0
  1 12  2  0
  1 24  1  0
  3 10  1  0
  3 16  1  0
  4 21  1  0
  4  3  1  0
  5 19  2  0
  7  2  1  0
  9 10  1  0
 11 14  1  0
 11  6  1  0
 12  5  1  0
 13 19  1  0
 13  8  1  0
 14 16  1  0
 15 18  2  0
 17  7  1  0
 18  8  1  0
 18  9  1  0
 20  6  1  0
 20 23  1  0
 21 11  1  0
 22 17  2  0
 23 17  1  0
 24 13  2  0
M  END
$$$$

     RDKit          3D

 10 10  0  0  0  0  0  0  0  0999 V2000
   37.0160   35.1830   32.8810 C   0  0  0  0  0  0  0  0  0  0  0  0
   37.8900   32.6080   33.2980 Cl  0  0  0  0  0  0  0  0  0  0  0  0
   40.5080   35.1850   32.7910 C   0  0  0  0  0  0  0  0  0  0  0  0
   39.5860   34.3140   33.1120 C   0  0  0  0  0  0  0  0  0  0  0  0
   38.6250   37.1310   32.4160 C   0  0  0  0  0  0  0  0  0  0  0  0
   42.1830   37.7320   33.2930 C   0  0  0  0  0  0  0  0  0  0  0  0
   40.9500   37.5720   32.7070 N   0  0  0  0  0  0  0  0  0  0  0  0
   37.3800   36.6470   32.6480 C   0  0  0  0  0  0  0  0  0  0  0  0
   40.0470   36.5990   32.5410 C   0  0  0  0  0  0  0  0  0  0  0  0
   38.1920   34.2550   33.1170 C   0  0  0  0  0  0  0  0  0  0  0  0
  1 10  1  0
  3  4  2  0
  4 10  1  0
  5  9  2  0
  5  8  1  0
  7  6  1  0
  8  1  2  0
  9  7  1  0
  9  3  1  0
 10  2  1  0
M  END
$$$$

     RDKit          3D

 25 26  0  0  0  0  0  0  0  0999 V2000
   45.2440   39.4030   27.9320 C   0  0  0  0  0  0  0  0  0  0  0  0
   44.3370   39.1860   28.6860 C   0  0  0  0  0  0  0  0  0  0  0  0
   36.7300   35.9360   32.7490 C   0  0  0  0  0  0  0  0  0  0  0  0
   32.7580   31.8640   36.6060 C   0  0  0  0  0  0  0  0  0  0  0  0
   31.4920   32.5510   36.1020 C   0  0  0  0  0  0  0  0  0  0  0  0
   40.0110   37.4970   32.3340 C   0  0  0  0  0  0  0  0  0  0  0  0
   35.1770   34.4020   33.9380 C   0  0  0  0  0  0  0  0  0  0  0  0
   34.2590   33.4370   33.9330 C   0  0  0  0  0  0  0  0  0  0  0  0
   37.7980   36.3240   32.3960 C   0  0  0  0  0  0  0  0  0  0  0  0
   40.9290   39.9740   30.4650 C   0  0  0  0  0  0  0  0  0  0  0  0
   36.4410   34.5320   33.4920 C   0  0  0  0  0  0  0  0  0  0  0  0
   38.6740   37.1160   31.4170 C   0  0  0  0  0  0  0  0  0  0  0  0
   42.4920   37.2510   29.4410 S   0  0  0  0  0  0  0  0  0  0  0  0
   42.9530   38.9230   29.0930 C   0  0  0  0  0  0  0  0  0  0  0  0
   34.0350   32.7540   35.2250 C   0  0  0  0  0  0  0  0  0  0  0  0
   30.6170   32.4310   37.3870 C   0  0  0  0  0  0  0  0  0  0  0  0
   43.3660   36.3490   30.2900 O   0  0  0  0  0  0  0  0  0  0  0  0
   30.1240   33.8450   37.5500 C   0  0  0  0  0  0  0  0  0  0  0  0
   46.5910   38.9300   27.6930 C   0  0  0  0  0  0  0  0  0  0  0  0
   42.6980   41.3330   29.1030 O   0  0  0  0  0  0  0  0  0  0  0  0
   41.9800   40.1260   29.3690 C   0  0  0  0  0  0  0  0  0  0  0  0
   40.7930   38.5350   31.3010 C   0  0  0  0  0  0  0  0  0  0  0  0
   32.7940   33.3180   36.0170 C   0  0  0  0  0  0  0  0  0  0  0  0
   41.1570   37.5610   30.2590 O   0  0  0  0  0  0  0  0  0  0  0  0
   42.8590   36.5610   28.1480 O   0  0  0  0  0  0  0  0  0  0  0  0
  1  2  2  0
  2 14  2  0
  3 11  1  0
  5  4  1  0
  5 16  1  0
  8  7  1  0
  8 15  1  0
  9  3  1  0
 10 22  1  0
 11  7  1  0
 12  6  1  0
 12  9  1  0
 13 24  1  0
 13 17  1  0
 14 21  1  0
 14 13  1  0
 16 18  1  0
 19  1  1  0
 21 20  1  0
 21 10  1  0
 22  6  1  0
 23 15  1  0
 23  5  1  0
 23  4  1  0
 24 22  1  0
 25 13  1  0
M  END
$$$$

     RDKit          3D

 10 11  0  0  0  0  0  0  0  0999 V2000
   34.6770   34.2070   35.4050 C   0  0  0  0  0  0  0  0  0  0  0  0
   35.1510   33.0800   37.5920 C   0  0  0  0  0  0  0  0  0  0  0  0
   32.9570   35.5960   35.2850 N   0  0  0  0  0  0  0  0  0  0  0  0
   33.5860   34.6820   36.0910 C   0  0  0  0  0  0  0  0  0  0  0  0
   34.5990   34.5980   33.7190 S   0  0  0  0  0  0  0  0  0  0  0  0
   33.4350   35.7200   34.0330 C   0  0  0  0  0  0  0  0  0  0  0  0
   34.2180   34.0960   38.3070 C   0  0  0  0  0  0  0  0  0  0  0  0
   35.4950   33.4550   36.2590 N   0  0  0  0  0  0  0  0  0  0  0  0
   33.2410   34.6760   37.3960 C   0  0  0  0  0  0  0  0  0  0  0  0
   32.1220   35.0880   37.9450 N   0  0  0  0  0  0  0  0  0  0  0  0
  1  4  1  0
  1  8  2  0
  2  7  1  0
  3  4  2  0
  4  9  1  0
  5  6  1  0
  5  1  1  0
  6  3  1  0
  8  2  1  0
  9 10  2  0
  9  7  1  0
M  END
$$$$

     RDKit          3D

  8  7  0  0  0  0  0  0  0  0999 V2000
   33.6680   34.8070   34.8230 O   0  0  0  0  0  0  0  0  0  0  0  0
   36.5210   35.0910   33.3210 C   0  0  0  0  0  0  0  0  0  0  0  0
   34.6060   35.0850   34.9690 C   0  0  0  0  0  0  0  0  0  0  0  0
   35.2620   35.7570   33.8570 C   0  0  0  0  0  0  0  0  0  0  0  0
   38.7620   32.6000   33.7540 O   0  0  0  0  0  0  0  0  0  0  0  0
   36.6010   33.5770   33.2320 C   0  0  0  0  0  0  0  0  0  0  0  0
   34.7670   34.6470   36.1920 O   0  0  0  0  0  0  0  0  0  0  0  0
   37.5000   32.9370   34.2850 C   0  0  0  0  0  0  0  0  0  0  0  0
  1  3  2  0
  2  4  1  0
  3  7  1  0
  4  3  1  0
  5  8  1  0
  6  2  1  0
  6  8  1  0
M  END
$$$$

     RDKit          3D

 23 24  0  0  0  0  0  0  0  0999 V2000
   34.4990   33.4330   36.2740 O   0  0  0  0  0  0  0  0  0  0  0  0
   38.6580   33.0870   34.0680 C   0  0  0  0  0  0  0  0  0  0  0  0
   47.0480   36.4280   34.5850 C   0  0  0  0  0  0  0  0  0  0  0  0
   36.5090   31.3840   38.6310 C   0  0  0  0  0  0  0  0  0  0  0  0
   40.6730   33.9260   34.8540 O   0  0  0  0  0  0  0  0  0  0  0  0
   45.8160   36.3670   33.8810 O   0  0  0  0  0  0  0  0  0  0  0  0
   43.0210   36.0900   32.8440 C   0  0  0  0  0  0  0  0  0  0  0  0
   36.9060   33.0960   36.7240 C   0  0  0  0  0  0  0  0  0  0  0  0
   43.1830   37.1450   33.7960 O   0  0  0  0  0  0  0  0  0  0  0  0
   45.1330   38.2250   35.6590 N   0  0  0  0  0  0  0  0  0  0  0  0
   43.5270   36.5960   35.0360 C   0  0  0  0  0  0  0  0  0  0  0  0
   35.8020   33.2610   35.9020 C   0  0  0  0  0  0  0  0  0  0  0  0
   41.0250   34.5680   33.6420 C   0  0  0  0  0  0  0  0  0  0  0  0
   34.9260   33.6050   33.7750 O   0  0  0  0  0  0  0  0  0  0  0  0
   39.2610   33.8030   35.2650 C   0  0  0  0  0  0  0  0  0  0  0  0
   42.4530   35.0770   33.8030 C   0  0  0  0  0  0  0  0  0  0  0  0
   38.4570   33.2760   36.5150 C   0  0  0  0  0  0  0  0  0  0  0  0
   37.2420   33.0290   33.8160 C   0  0  0  0  0  0  0  0  0  0  0  0
   42.5350   35.5720   35.1670 O   0  0  0  0  0  0  0  0  0  0  0  0
   45.0510   36.3900   35.1110 C   0  0  0  0  0  0  0  0  0  0  0  0
   35.8930   33.3190   34.4890 C   0  0  0  0  0  0  0  0  0  0  0  0
   36.7900   32.7670   38.1160 C   0  0  0  0  0  0  0  0  0  0  0  0
   33.6480   34.6170   36.4860 C   0  0  0  0  0  0  0  0  0  0  0  0
  1 23  1  0
  2 15  1  0
  6  3  1  0
  6 20  1  0
  7  9  1  0
  7 16  1  0
  8 22  1  0
  9 11  1  0
 11 20  1  0
 11 19  1  0
 12  1  1  0
 12  8  1  0
 13  5  1  0
 14 21  2  0
 15  5  1  0
 15 17  1  0
 16 13  1  0
 16 19  1  0
 17  8  2  0
 18  2  2  0
 18 21  1  0
 20 10  1  0
 21 12  1  0
 22  4  1  0
M  END
$$$$

     RDKit          3D

  7  6  0  0  0  0  0  0  0  0999 V2000
   43.1880   39.1510   32.9030 N   0  0  0  0  0  0  0  0  0  0  0  0
   44.2450   36.4220   32.9540 C   0  0  0  0  0  0  0  0  0  0  0  0
   45.1210   37.6200   32.5400 C   0  0  0  0  0  0  0  0  0  0  0  0
   42.4040   35.5170   31.8800 O   0  0  0  0  0  0  0  0  0  0  0  0
   43.6430   35.6160   31.8910 C   0  0  0  0  0  0  0  0  0  0  0  0
   44.3060   35.3080   30.8520 O   0  0  0  0  0  0  0  0  0  0  0  0
   44.4390   38.6700   33.4460 C   0  0  0  0  0  0  0  0  0  0  0  0
  1  7  1  0
  3  2  1  0
  3  7  1  0
  4  5  1  0
  5  2  1  0
  6  5  2  0
M  END
$$$$

     RDKit          3D

 22 22  0  0  0  0  0  0  0  0999 V2000
   42.7860   36.6770   33.3010 C   0  0  0  0  0  0  0  0  0  0  0  0
   44.0420   39.7020   32.4590 C   0  0  0  0  0  0  0  0  0  0  0  0
   43.6120   37.1790   35.6830 C   0  0  0  0  0  0  0  0  0  0  0  0
   39.9460   34.8180   33.3680 C   0  0  0  0  0  0  0  0  0  0  0  0
   43.5190   36.1820   34.5400 C   0  0  0  0  0  0  0  0  0  0  0  0
   36.8480   30.0330   34.8440 C   0  0  0  0  0  0  0  0  0  0  0  0
   39.3290   33.9540   34.4610 C   0  0  0  0  0  0  0  0  0  0  0  0
   41.4550   34.5700   33.2710 C   0  0  0  0  0  0  0  0  0  0  0  0
   36.7100   31.1070   35.9180 C   0  0  0  0  0  0  0  0  0  0  0  0
   37.9320   33.4330   34.5230 C   0  0  0  0  0  0  0  0  0  0  0  0
   37.6390   32.2900   35.4920 C   0  0  0  0  0  0  0  0  0  0  0  0
   35.9360   28.8420   35.0580 C   0  0  0  0  0  0  0  0  0  0  0  0
   42.1400   35.6780   32.4930 C   0  0  0  0  0  0  0  0  0  0  0  0
   44.4940   39.2300   34.5120 C   0  0  0  0  0  0  0  0  0  0  0  0
   44.8480   38.0620   35.4170 C   0  0  0  0  0  0  0  0  0  0  0  0
   38.2090   29.6640   34.7320 O   0  0  0  0  0  0  0  0  0  0  0  0
   42.3150   38.0400   33.2610 C   0  0  0  0  0  0  0  0  0  0  0  0
   36.8810   30.7180   37.3210 N   0  0  0  0  0  0  0  0  0  0  0  0
   43.2810   39.1390   33.6180 C   0  0  0  0  0  0  0  0  0  0  0  0
   37.0370   34.1510   34.1500 O   0  0  0  0  0  0  0  0  0  0  0  0
   40.8630   38.3460   32.8450 C   0  0  0  0  0  0  0  0  0  0  0  0
   42.2140   35.6590   31.0120 C   0  0  0  0  0  0  0  0  0  0  0  0
  1 13  1  0
  1  5  1  0
  4  7  1  0
  5  3  1  0
  6 12  1  0
  6  9  1  0
  7 10  1  0
  8  4  1  0
  9 18  1  0
 10 11  1  0
 11  9  1  0
 13 22  1  0
 13  8  1  0
 14 15  1  0
 15  3  1  0
 16  6  1  0
 17 21  1  0
 17  1  1  0
 17 19  1  0
 19  2  1  0
 19 14  1  0
 20 10  2  0
M  END
$$$$

     RDKit          3D

  9  9  0  0  0  0  0  0  0  0999 V2000
   41.1630   34.1860   33.2400 C   0  0  0  0  0  0  0  0  0  0  0  0
   39.5220   36.5840   35.1230 O   0  0  0  0  0  0  0  0  0  0  0  0
   40.0540   37.4840   34.1790 N   0  0  0  0  0  0  0  0  0  0  0  0
   40.4760   35.3890   33.6910 C   0  0  0  0  0  0  0  0  0  0  0  0
   38.1920   34.9260   34.1880 O   0  0  0  0  0  0  0  0  0  0  0  0
   42.1670   33.9050   33.9070 O   0  0  0  0  0  0  0  0  0  0  0  0
   40.9720   33.7570   32.1710 O   0  0  0  0  0  0  0  0  0  0  0  0
   39.2380   35.4780   34.2520 C   0  0  0  0  0  0  0  0  0  0  0  0
   41.2410   36.6370   33.6290 O   0  0  0  0  0  0  0  0  0  0  0  0
  1  6  1  0
  3  2  1  0
  4  1  1  0
  4  8  1  0
  5  8  2  0
  7  1  2  0
  8  2  1  0
  9  4  1  0
  9  3  1  0
M  END
$$$$

     RDKit          3D

  7  8  0  0  0  0  0  0  0  0999 V2000
   44.5630   35.6970   33.9460 S   0  0  0  0  0  0  0  0  0  0  0  0
   43.1990   36.2140   33.5810 C   0  0  0  0  0  0  0  0  0  0  0  0
   44.2510   37.7390   30.4270 N   0  0  0  0  0  0  0  0  0  0  0  0
   43.4410   37.4600   31.7010 C   0  0  0  0  0  0  0  0  0  0  0  0
   42.1160   36.8360   31.6610 N   0  0  0  0  0  0  0  0  0  0  0  0
   41.9230   35.8400   32.8090 C   0  0  0  0  0  0  0  0  0  0  0  0
   44.3800   36.8080   32.7040 C   0  0  0  0  0  0  0  0  0  0  0  0
  2  6  1  0
  2  1  1  0
  4  3  1  0
  4  7  1  0
  5  4  1  0
  5  6  1  0
  7  2  1  0
  7  1  1  0
M  END
$$$$

     RDKit          3D

  8  7  0  0  0  0  0  0  0  0999 V2000
   40.6700   35.4350   32.7800 C   0  0  0  0  0  0  0  0  0  0  0  0
   40.1790   36.0790   31.5170 C   0  0  0  0  0  0  0  0  0  0  0  0
   42.6890   34.2830   33.4590 O   0  0  0  0  0  0  0  0  0  0  0  0
   38.4820   36.0460   33.9610 O   0  0  0  0  0  0  0  0  0  0  0  0
   39.0870   35.1080   33.4770 C   0  0  0  0  0  0  0  0  0  0  0  0
   38.9130   33.9830   33.7380 O   0  0  0  0  0  0  0  0  0  0  0  0
   41.8420   34.2490   32.3580 C   0  0  0  0  0  0  0  0  0  0  0  0
   42.8810   34.5590   31.4550 O   0  0  0  0  0  0  0  0  0  0  0  0
  1  2  1  0
  1  5  1  0
  5  6  2  0
  5  4  1  0
  7  1  1  0
  7  3  1  0
  8  7  1  0
M  END
$$$$
