
     RDKit          3D

 37 42  0  0  0  0  0  0  0  0999 V2000
   39.4350   35.2690   31.5110 N   0  0  0  0  0  0  0  0  0  0  0  0
   29.3030   38.7570   25.5170 C   0  0  0  0  0  0  0  0  0  0  0  0
   38.2290   34.7310   31.0080 C   0  0  0  0  0  0  0  0  0  0  0  0
   37.4300   36.9860   31.2310 C   0  0  0  0  0  0  0  0  0  0  0  0
   30.7110   38.9560   24.9940 C   0  0  0  0  0  0  0  0  0  0  0  0
   41.4770   34.9030   33.6690 C   0  0  0  0  0  0  0  0  0  0  0  0
   36.0170   34.6240   31.3070 C   0  0  0  0  0  0  0  0  0  0  0  0
   34.3220   39.4080   27.6320 C   0  0  0  0  0  0  0  0  0  0  0  0
   34.6200   37.6280   29.6630 C   0  0  0  0  0  0  0  0  0  0  0  0
   28.8650   37.2050   23.7600 C   0  0  0  0  0  0  0  0  0  0  0  0
   34.7300   35.3120   31.6050 C   0  0  0  0  0  0  0  0  0  0  0  0
   39.9190   36.4480   31.2440 C   0  0  0  0  0  0  0  0  0  0  0  0
   33.9600   34.7770   32.5980 C   0  0  0  0  0  0  0  0  0  0  0  0
   31.7520   39.1300   25.8210 C   0  0  0  0  0  0  0  0  0  0  0  0
   32.6550   36.7240   32.7220 C   0  0  0  0  0  0  0  0  0  0  0  0
   34.2890   36.6010   30.8630 C   0  0  0  0  0  0  0  0  0  0  0  0
   38.0720   36.2320   28.6630 C   0  0  0  0  0  0  0  0  0  0  0  0
   38.0690   35.1290   29.6140 C   0  0  0  0  0  0  0  0  0  0  0  0
   41.6520   35.6200   32.4480 C   0  0  0  0  0  0  0  0  0  0  0  0
   35.6050   39.1680   28.0300 C   0  0  0  0  0  0  0  0  0  0  0  0
   33.9540   40.1810   26.3900 C   0  0  0  0  0  0  0  0  0  0  0  0
   38.8320   37.4500   29.1310 C   0  0  0  0  0  0  0  0  0  0  0  0
   32.4840   40.1970   26.0000 C   0  0  0  0  0  0  0  0  0  0  0  0
   37.0180   35.5850   30.6550 C   0  0  0  0  0  0  0  0  0  0  0  0
   38.8200   37.3550   30.6840 C   0  0  0  0  0  0  0  0  0  0  0  0
   32.2120   41.4240   25.3630 N   0  0  0  0  0  0  0  0  0  0  0  0
   32.9480   35.4680   33.2290 C   0  0  0  0  0  0  0  0  0  0  0  0
   29.8260   37.8930   22.8080 C   0  0  0  0  0  0  0  0  0  0  0  0
   33.1780   37.1860   31.5320 C   0  0  0  0  0  0  0  0  0  0  0  0
   33.2190   38.8280   28.2070 N   0  0  0  0  0  0  0  0  0  0  0  0
   27.4170   37.1490   25.5560 C   0  0  0  0  0  0  0  0  0  0  0  0
   28.8040   37.4310   24.9260 C   0  0  0  0  0  0  0  0  0  0  0  0
   30.5970   39.0600   23.4810 C   0  0  0  0  0  0  0  0  0  0  0  0
   41.2500   36.5750   31.7070 N   0  0  0  0  0  0  0  0  0  0  0  0
   39.1410   38.4160   27.9290 C   0  0  0  0  0  0  0  0  0  0  0  0
   35.7760   38.2530   29.0330 C   0  0  0  0  0  0  0  0  0  0  0  0
   33.3800   38.1110   29.2290 C   0  0  0  0  0  0  0  0  0  0  0  0
  3  1  1  0
  5  2  1  0
  5 14  1  0
  7 11  1  0
  8 20  2  0
  8 30  1  0
  9 16  1  0
 10 32  1  0
 11 13  1  0
 12  1  2  0
 12 34  1  0
 13 27  2  0
 14 23  1  0
 15 27  1  0
 16 29  1  0
 16 11  2  0
 17 22  1  0
 18 17  1  0
 18 24  1  0
 18  3  1  0
 19  6  1  0
 20 36  1  0
 21  8  1  0
 22 35  1  0
 22 25  1  0
 23 26  1  0
 23 21  1  0
 24  3  1  0
 24  4  1  0
 24  7  1  0
 25  4  1  0
 25 12  1  0
 28 33  1  0
 28 10  1  0
 29 15  2  0
 30 37  2  0
 32  2  1  0
 32 31  1  0
 33  5  1  0
 34 19  1  0
 36  9  2  0
 37  9  1  0
M  END
$$$$

     RDKit          3D

 23 23  0  0  0  0  0  0  0  0999 V2000
   37.9560   37.6700   27.0610 N   0  0  0  0  0  0  0  0  0  0  0  0
   36.7770   33.1650   33.0740 C   0  0  0  0  0  0  0  0  0  0  0  0
   37.4950   36.3050   31.4120 C   0  0  0  0  0  0  0  0  0  0  0  0
   37.5590   42.8700   26.4450 C   0  0  0  0  0  0  0  0  0  0  0  0
   39.0410   38.4340   25.4960 O   0  0  0  0  0  0  0  0  0  0  0  0
   34.1600   37.1180   30.5370 C   0  0  0  0  0  0  0  0  0  0  0  0
   37.4990   40.5610   27.8290 C   0  0  0  0  0  0  0  0  0  0  0  0
   37.7160   31.2300   34.3570 C   0  0  0  0  0  0  0  0  0  0  0  0
   37.7200   31.9400   33.1060 C   0  0  0  0  0  0  0  0  0  0  0  0
   36.0050   36.1130   34.7470 C   0  0  0  0  0  0  0  0  0  0  0  0
   37.3620   34.4090   33.5070 C   0  0  0  0  0  0  0  0  0  0  0  0
   36.3850   36.4770   32.3790 C   0  0  0  0  0  0  0  0  0  0  0  0
   38.0780   37.2740   29.3180 C   0  0  0  0  0  0  0  0  0  0  0  0
   37.2880   42.8180   24.0500 C   0  0  0  0  0  0  0  0  0  0  0  0
   38.1820   38.6560   26.3640 C   0  0  0  0  0  0  0  0  0  0  0  0
   36.5520   35.5910   33.4870 C   0  0  0  0  0  0  0  0  0  0  0  0
   34.9270   36.6150   31.8610 C   0  0  0  0  0  0  0  0  0  0  0  0
   38.5010   40.7430   24.5280 C   0  0  0  0  0  0  0  0  0  0  0  0
   37.4580   37.5590   30.6190 C   0  0  0  0  0  0  0  0  0  0  0  0
   37.2410   40.7350   25.2840 C   0  0  0  0  0  0  0  0  0  0  0  0
   38.0580   42.0250   25.2310 C   0  0  0  0  0  0  0  0  0  0  0  0
   37.4400   39.8620   26.5150 C   0  0  0  0  0  0  0  0  0  0  0  0
   37.1820   37.6260   28.1990 C   0  0  0  0  0  0  0  0  0  0  0  0
  1 23  1  0
  2  9  1  0
  2 11  2  3
  5 15  2  0
  6 17  1  0
  9  8  1  0
 12  3  1  0
 12 16  1  0
 13 19  1  0
 14 21  1  0
 15 22  1  0
 15  1  1  0
 16 11  1  0
 16 10  1  0
 17 12  1  0
 18 21  1  0
 18 20  1  0
 19  3  1  0
 20 22  1  0
 21 20  1  0
 21  4  1  0
 22  7  1  0
 23 13  1  0
M  END
$$$$

     RDKit          3D

 11 12  0  0  0  0  0  0  0  0999 V2000
   36.5210   38.6920   29.9430 C   0  0  0  0  0  0  0  0  0  0  0  0
   38.3090   37.0430   29.6130 C   0  0  0  0  0  0  0  0  0  0  0  0
   36.9860   37.5780   29.3840 N   0  0  0  0  0  0  0  0  0  0  0  0
   35.9180   37.3930   30.2970 C   0  0  0  0  0  0  0  0  0  0  0  0
   35.6840   39.5330   28.9870 C   0  0  0  0  0  0  0  0  0  0  0  0
   36.7020   40.1990   28.0880 O   0  0  0  0  0  0  0  0  0  0  0  0
   36.2820   36.9930   31.7530 C   0  0  0  0  0  0  0  0  0  0  0  0
   37.0050   37.4270   27.9380 C   0  0  0  0  0  0  0  0  0  0  0  0
   35.1230   35.8960   31.9640 C   0  0  0  0  0  0  0  0  0  0  0  0
   33.6700   36.3360   32.0240 O   0  0  0  0  0  0  0  0  0  0  0  0
   36.0340   36.1510   33.0290 C   0  0  0  0  0  0  0  0  0  0  0  0
  1  5  1  0
  1  4  1  0
  3  2  1  0
  3  1  1  0
  4  3  1  0
  4  7  1  0
  6  5  1  0
  7  9  1  0
  7 11  1  0
  8  3  1  0
  9 10  1  0
  9 11  1  0
M  END
$$$$

     RDKit          3D

 25 25  0  0  0  0  0  0  0  0999 V2000
   38.7930   37.8780   27.4890 N   0  0  0  0  0  0  0  0  0  0  0  0
   36.5200   36.8600   29.5320 C   0  0  0  0  0  0  0  0  0  0  0  0
   36.4750   30.9790   34.4030 C   0  0  0  0  0  0  0  0  0  0  0  0
   35.2000   31.0350   31.4350 C   0  0  0  0  0  0  0  0  0  0  0  0
   36.5210   40.8090   27.3210 C   0  0  0  0  0  0  0  0  0  0  0  0
   37.5880   38.3950   27.7200 C   0  0  0  0  0  0  0  0  0  0  0  0
   36.2170   43.1320   29.0720 C   0  0  0  0  0  0  0  0  0  0  0  0
   36.4040   37.7230   28.3450 C   0  0  0  0  0  0  0  0  0  0  0  0
   35.4540   32.1570   32.2330 C   0  0  0  0  0  0  0  0  0  0  0  0
   35.8810   34.3370   30.4840 C   0  0  0  0  0  0  0  0  0  0  0  0
   35.7240   35.8350   30.1170 C   0  0  0  0  0  0  0  0  0  0  0  0
   36.7230   44.0940   25.5880 C   0  0  0  0  0  0  0  0  0  0  0  0
   38.6640   44.5030   27.1260 C   0  0  0  0  0  0  0  0  0  0  0  0
   36.5360   43.2430   26.7090 N   0  0  0  0  0  0  0  0  0  0  0  0
   35.6690   32.0410   33.7590 C   0  0  0  0  0  0  0  0  0  0  0  0
   35.3620   33.5320   31.6650 N   0  0  0  0  0  0  0  0  0  0  0  0
   36.7930   41.9610   26.3810 C   0  0  0  0  0  0  0  0  0  0  0  0
   35.3530   34.4110   32.8110 N   0  0  0  0  0  0  0  0  0  0  0  0
   39.6590   38.8870   27.0700 N   0  0  0  0  0  0  0  0  0  0  0  0
   35.0440   35.7290   32.9960 C   0  0  0  0  0  0  0  0  0  0  0  0
   37.6090   44.8890   25.8260 C   0  0  0  0  0  0  0  0  0  0  0  0
   38.9890   40.0160   27.0390 C   0  0  0  0  0  0  0  0  0  0  0  0
   36.0580   43.6650   27.7370 O   0  0  0  0  0  0  0  0  0  0  0  0
   38.2980   46.1160   25.3220 C   0  0  0  0  0  0  0  0  0  0  0  0
   37.6550   39.7390   27.4170 C   0  0  0  0  0  0  0  0  0  0  0  0
  1  6  1  0
  2 11  1  0
  5 25  1  0
  6  8  1  0
  8  2  1  0
  9  4  1  0
  9 15  1  0
 10 16  1  0
 11 10  1  0
 12 21  1  0
 12 14  1  0
 14 23  1  0
 15  3  1  0
 16  9  1  0
 16 18  1  0
 17 14  1  0
 17  5  1  0
 18 20  1  0
 19  1  2  0
 21 13  1  0
 22 19  1  0
 22 25  2  0
 23  7  1  0
 24 21  1  0
 25  6  1  0
M  END
$$$$

     RDKit          3D

 12 12  0  0  0  0  0  0  0  0999 V2000
   38.0850   37.4330   33.9430 C   0  0  0  0  0  0  0  0  0  0  0  0
   37.1930   36.5890   31.4920 C   0  0  0  0  0  0  0  0  0  0  0  0
   36.9690   36.9960   29.1600 N   0  0  0  0  0  0  0  0  0  0  0  0
   37.2190   35.7990   32.4120 C   0  0  0  0  0  0  0  0  0  0  0  0
   36.3930   36.3450   30.2880 C   0  0  0  0  0  0  0  0  0  0  0  0
   36.6540   39.0520   29.1710 C   0  0  0  0  0  0  0  0  0  0  0  0
   37.9550   37.7900   31.1500 C   0  0  0  0  0  0  0  0  0  0  0  0
   37.5980   38.1250   29.7410 N   0  0  0  0  0  0  0  0  0  0  0  0
   38.5230   40.1490   32.3110 N   0  0  0  0  0  0  0  0  0  0  0  0
   37.2510   36.0740   33.6960 N   0  0  0  0  0  0  0  0  0  0  0  0
   38.8100   38.7090   29.1420 C   0  0  0  0  0  0  0  0  0  0  0  0
   38.1620   38.8650   33.2830 C   0  0  0  0  0  0  0  0  0  0  0  0
  2  4  1  0
  3  8  1  0
  3  5  1  0
  4 10  1  0
  5  2  1  0
  6  8  1  0
  7  2  1  0
  8  7  1  0
  9 12  1  0
 10  1  1  0
 11  8  1  0
 12  1  1  0
M  END
$$$$

     RDKit          3D

  8  7  0  0  0  0  0  0  0  0999 V2000
   37.6530   40.4560   26.5440 C   0  0  0  0  0  0  0  0  0  0  0  0
   38.0210   39.1030   25.9370 C   0  0  0  0  0  0  0  0  0  0  0  0
   36.7450   38.7400   25.2690 O   0  0  0  0  0  0  0  0  0  0  0  0
   39.3820   39.6740   23.8670 O   0  0  0  0  0  0  0  0  0  0  0  0
   39.2000   38.8070   25.0480 C   0  0  0  0  0  0  0  0  0  0  0  0
   38.7280   38.3130   26.9160 O   0  0  0  0  0  0  0  0  0  0  0  0
   36.3010   40.6610   26.9210 C   0  0  0  0  0  0  0  0  0  0  0  0
   38.6320   41.6060   26.5110 C   0  0  0  0  0  0  0  0  0  0  0  0
  1  7  1  0
  2  1  1  0
  2  6  1  0
  3  2  1  0
  4  5  1  0
  5  2  1  0
  8  1  1  0
M  END
$$$$

     RDKit          3D

 20 21  0  0  0  0  0  0  0  0999 V2000
   36.7310   37.9810   29.1760 C   0  0  0  0  0  0  0  0  0  0  0  0
   34.5410   36.9750   29.8750 N   0  0  0  0  0  0  0  0  0  0  0  0
   36.4590   36.8270   31.3820 C   0  0  0  0  0  0  0  0  0  0  0  0
   38.0970   36.7300   34.2320 C   0  0  0  0  0  0  0  0  0  0  0  0
   36.1540   38.1390   27.8720 C   0  0  0  0  0  0  0  0  0  0  0  0
   34.3080   35.8530   31.9690 C   0  0  0  0  0  0  0  0  0  0  0  0
   39.9570   41.9570   29.0680 C   0  0  0  0  0  0  0  0  0  0  0  0
   35.9170   37.2610   30.1270 C   0  0  0  0  0  0  0  0  0  0  0  0
   39.2080   35.4070   32.6720 N   0  0  0  0  0  0  0  0  0  0  0  0
   38.5840   37.8940   30.7540 C   0  0  0  0  0  0  0  0  0  0  0  0
   38.6020   36.6760   32.9060 C   0  0  0  0  0  0  0  0  0  0  0  0
   38.0190   38.4460   29.6270 C   0  0  0  0  0  0  0  0  0  0  0  0
   35.6130   36.2120   32.2880 C   0  0  0  0  0  0  0  0  0  0  0  0
   33.8290   36.1880   30.7030 C   0  0  0  0  0  0  0  0  0  0  0  0
   39.2090   43.2580   28.9300 C   0  0  0  0  0  0  0  0  0  0  0  0
   39.2120   40.7940   29.7620 C   0  0  0  0  0  0  0  0  0  0  0  0
   33.2690   35.0680   33.3900 Br  0  0  0  0  0  0  0  0  0  0  0  0
   38.6110   39.6930   28.8770 C   0  0  0  0  0  0  0  0  0  0  0  0
   40.9430   41.4620   28.0000 C   0  0  0  0  0  0  0  0  0  0  0  0
   37.8910   37.1560   31.6580 C   0  0  0  0  0  0  0  0  0  0  0  0
  1 12  2  0
  1  8  1  0
  2  8  2  0
  2 14  1  0
  3 20  1  0
  3 13  2  0
  5  1  1  0
  6 13  1  0
  6 17  1  0
  7 16  1  0
  8  3  1  0
  9 11  1  0
 10 20  2  0
 11  4  1  0
 12 10  1  0
 14  6  2  0
 15  7  1  0
 18 12  1  0
 18 16  2  3
 19  7  1  0
 20 11  1  0
M  END
$$$$

     RDKit          3D

 13 13  0  0  0  0  0  0  0  0999 V2000
   37.6320   36.9510   29.6370 C   0  0  0  0  0  0  0  0  0  0  0  0
   36.2050   37.8110   31.2840 C   0  0  0  0  0  0  0  0  0  0  0  0
   35.6120   34.6560   31.4570 N   0  0  0  0  0  0  0  0  0  0  0  0
   38.2980   38.2250   30.1970 C   0  0  0  0  0  0  0  0  0  0  0  0
   38.8640   40.7060   29.4530 O   0  0  0  0  0  0  0  0  0  0  0  0
   35.3480   35.7110   32.4240 C   0  0  0  0  0  0  0  0  0  0  0  0
   37.6490   39.0100   27.7360 N   0  0  0  0  0  0  0  0  0  0  0  0
   36.4350   36.7750   32.3540 C   0  0  0  0  0  0  0  0  0  0  0  0
   38.6660   39.3690   28.8360 P   0  0  0  0  0  0  0  0  0  0  0  0
   37.3330   38.7300   31.0990 O   0  0  0  0  0  0  0  0  0  0  0  0
   40.0130   39.0500   28.3930 O   0  0  0  0  0  0  0  0  0  0  0  0
   36.1510   37.2360   29.8890 C   0  0  0  0  0  0  0  0  0  0  0  0
   39.4990   38.0700   30.9180 O   0  0  0  0  0  0  0  0  0  0  0  0
  1 12  1  0
  1  4  1  0
  2  8  1  0
  3  6  1  0
  4 13  1  0
  4 10  1  0
  8  6  1  0
  9  7  1  0
  9  5  1  0
  9  4  1  0
 10  2  1  0
 11  9  2  0
 12  2  1  0
M  END
$$$$

     RDKit          3D

 12 12  0  0  0  0  0  0  0  0999 V2000
   36.1610   38.5660   30.3490 C   0  0  0  0  0  0  0  0  0  0  0  0
   35.9250   37.0880   30.4200 C   0  0  0  0  0  0  0  0  0  0  0  0
   35.1150   39.2920   29.3120 Cl  0  0  0  0  0  0  0  0  0  0  0  0
   37.6050   39.0270   30.1670 C   0  0  0  0  0  0  0  0  0  0  0  0
   36.7680   34.9990   30.9090 F   0  0  0  0  0  0  0  0  0  0  0  0
   38.2620   36.7560   31.3660 C   0  0  0  0  0  0  0  0  0  0  0  0
   36.9440   36.2450   30.8600 C   0  0  0  0  0  0  0  0  0  0  0  0
   38.0160   40.2850   29.8910 C   0  0  0  0  0  0  0  0  0  0  0  0
   34.7920   36.6250   30.2100 O   0  0  0  0  0  0  0  0  0  0  0  0
   38.8710   41.1890   30.3760 C   0  0  0  0  0  0  0  0  0  0  0  0
   38.4850   40.9670   31.4220 C   0  0  0  0  0  0  0  0  0  0  0  0
   38.7080   38.0810   30.7760 C   0  0  0  0  0  0  0  0  0  0  0  0
  1  3  1  0
  1  2  1  0
  2  7  1  0
  4  1  1  0
  4 12  2  0
  7  5  1  0
  7  6  1  0
  8  4  1  0
  8 10  1  0
  9  2  2  0
 10 11  1  0
 12  6  1  0
M  END
$$$$

     RDKit          3D

  6  5  0  0  0  0  0  0  0  0999 V2000
   34.6350   34.8220   31.9530 C   0  0  0  0  0  0  0  0  0  0  0  0
   34.6490   34.5050   33.0060 O   0  0  0  0  0  0  0  0  0  0  0  0
   34.7990   35.8350   30.9300 C   0  0  0  0  0  0  0  0  0  0  0  0
   37.1360   34.6300   30.3960 C   0  0  0  0  0  0  0  0  0  0  0  0
   34.2580   37.0180   30.9970 O   0  0  0  0  0  0  0  0  0  0  0  0
   36.2680   35.8670   30.4950 C   0  0  0  0  0  0  0  0  0  0  0  0
  1  2  2  0
  3  5  1  0
  3  1  1  0
  4  6  1  0
  6  3  1  0
M  END
$$$$

     RDKit          3D

 13 14  0  0  0  0  0  0  0  0999 V2000
   37.5630   34.1900   32.8060 C   0  0  0  0  0  0  0  0  0  0  0  0
   37.5700   35.8450   30.6530 C   0  0  0  0  0  0  0  0  0  0  0  0
   37.3540   34.4180   30.3110 C   0  0  0  0  0  0  0  0  0  0  0  0
   37.9000   39.2930   29.7610 N   0  0  0  0  0  0  0  0  0  0  0  0
   38.3160   37.8280   31.8760 C   0  0  0  0  0  0  0  0  0  0  0  0
   37.9900   38.0750   30.4210 C   0  0  0  0  0  0  0  0  0  0  0  0
   37.6460   36.8950   29.7760 C   0  0  0  0  0  0  0  0  0  0  0  0
   37.7080   41.6550   29.8520 C   0  0  0  0  0  0  0  0  0  0  0  0
   37.0950   35.6280   33.0090 C   0  0  0  0  0  0  0  0  0  0  0  0
   38.8400   40.4150   31.4360 O   0  0  0  0  0  0  0  0  0  0  0  0
   38.2140   40.4240   30.4000 C   0  0  0  0  0  0  0  0  0  0  0  0
   37.9510   36.3340   31.9800 C   0  0  0  0  0  0  0  0  0  0  0  0
   36.7720   33.6790   31.5760 C   0  0  0  0  0  0  0  0  0  0  0  0
  1  9  1  0
  2 12  1  0
  3  2  1  0
  3 13  1  0
  4 11  1  0
  4  6  1  0
  6  5  2  0
  7  6  1  0
  7  2  2  0
  8 11  1  0
 11 10  2  0
 12  5  1  0
 12  9  1  0
 13  1  1  0
M  END
$$$$

     RDKit          3D

 15 16  0  0  0  0  0  0  0  0999 V2000
   36.6180   36.2480   32.2280 C   0  0  0  0  0  0  0  0  0  0  0  0
   38.5680   40.0750   27.4290 C   0  0  0  0  0  0  0  0  0  0  0  0
   39.2000   41.2790   27.7140 C   0  0  0  0  0  0  0  0  0  0  0  0
   37.7750   39.7910   29.9250 C   0  0  0  0  0  0  0  0  0  0  0  0
   39.1690   41.9010   29.1380 C   0  0  0  0  0  0  0  0  0  0  0  0
   36.1410   36.3090   30.7710 C   0  0  0  0  0  0  0  0  0  0  0  0
   38.0690   38.3580   32.1910 C   0  0  0  0  0  0  0  0  0  0  0  0
   37.8300   36.5830   34.0410 N   0  0  0  0  0  0  0  0  0  0  0  0
   37.8170   39.2350   28.4750 C   0  0  0  0  0  0  0  0  0  0  0  0
   38.1550   38.5700   30.7960 C   0  0  0  0  0  0  0  0  0  0  0  0
   36.9150   35.4450   35.7350 N   0  0  0  0  0  0  0  0  0  0  0  0
   36.0190   35.5580   33.2840 C   0  0  0  0  0  0  0  0  0  0  0  0
   38.4890   41.0850   30.2290 C   0  0  0  0  0  0  0  0  0  0  0  0
   37.6210   37.0460   32.8430 C   0  0  0  0  0  0  0  0  0  0  0  0
   36.9680   35.4020   34.2870 C   0  0  0  0  0  0  0  0  0  0  0  0
  1  6  1  0
  1 14  1  0
  1 12  1  0
  2  3  2  0
  2  9  1  0
  3  5  1  0
  4 13  1  0
  4 10  1  0
  5 13  2  0
  8 15  1  0
  9  4  2  0
 10  7  1  0
 12 15  1  0
 14  7  1  0
 14  8  1  0
 15 11  1  0
M  END
$$$$

     RDKit          3D

 34 37  0  0  0  0  0  0  0  0999 V2000
   31.6450   33.9300   36.6980 O   0  0  0  0  0  0  0  0  0  0  0  0
   37.7630   42.0660   25.8930 S   0  0  0  0  0  0  0  0  0  0  0  0
   30.6770   33.9920   33.9970 N   0  0  0  0  0  0  0  0  0  0  0  0
   36.2870   39.1560   27.5820 N   0  0  0  0  0  0  0  0  0  0  0  0
   37.3160   40.0380   27.1090 C   0  0  0  0  0  0  0  0  0  0  0  0
   39.8390   39.6340   27.5190 C   0  0  0  0  0  0  0  0  0  0  0  0
   34.0820   36.9520   30.0620 N   0  0  0  0  0  0  0  0  0  0  0  0
   40.3170   38.4210   28.1010 O   0  0  0  0  0  0  0  0  0  0  0  0
   31.9810   33.2780   34.0490 O   0  0  0  0  0  0  0  0  0  0  0  0
   36.0230   40.1960   27.1940 N   0  0  0  0  0  0  0  0  0  0  0  0
   40.5700   41.0800   25.7530 C   0  0  0  0  0  0  0  0  0  0  0  0
   30.0800   32.8220   36.2440 P   0  0  0  0  0  0  0  0  0  0  0  0
   40.6240   40.9150   27.3140 C   0  0  0  0  0  0  0  0  0  0  0  0
   32.9300   34.8790   32.7090 N   0  0  0  0  0  0  0  0  0  0  0  0
   37.1640   35.8920   30.0860 O   0  0  0  0  0  0  0  0  0  0  0  0
   34.7820   37.7480   29.0420 C   0  0  0  0  0  0  0  0  0  0  0  0
   36.1590   38.1340   28.5780 C   0  0  0  0  0  0  0  0  0  0  0  0
   32.2110   35.7400   30.6380 C   0  0  0  0  0  0  0  0  0  0  0  0
   38.1300   39.5140   29.3510 C   0  0  0  0  0  0  0  0  0  0  0  0
   42.0930   40.5630   27.6380 C   0  0  0  0  0  0  0  0  0  0  0  0
   38.4850   39.8430   27.9640 N   0  0  0  0  0  0  0  0  0  0  0  0
   37.4740   37.2110   30.3090 C   0  0  0  0  0  0  0  0  0  0  0  0
   30.5470   31.3450   36.0760 O   0  0  0  0  0  0  0  0  0  0  0  0
   32.8140   36.4770   29.5990 O   0  0  0  0  0  0  0  0  0  0  0  0
   29.7450   32.6430   37.7360 O   0  0  0  0  0  0  0  0  0  0  0  0
   40.3530   39.7920   24.9650 C   0  0  0  0  0  0  0  0  0  0  0  0
   37.4100   38.1860   29.2640 N   0  0  0  0  0  0  0  0  0  0  0  0
   33.2020   35.6880   31.6540 C   0  0  0  0  0  0  0  0  0  0  0  0
   34.2650   36.4410   31.2640 C   0  0  0  0  0  0  0  0  0  0  0  0
   31.7130   34.5250   33.4810 C   0  0  0  0  0  0  0  0  0  0  0  0
   30.1040   33.0960   34.6440 C   0  0  0  0  0  0  0  0  0  0  0  0
   33.9190   38.4420   28.1470 C   0  0  0  0  0  0  0  0  0  0  0  0
   39.4860   42.0540   25.3860 C   0  0  0  0  0  0  0  0  0  0  0  0
   33.3250   38.8850   27.1610 C   0  0  0  0  0  0  0  0  0  0  0  0
  3  9  1  0
  3 31  1  0
  4 10  1  0
  4 17  1  0
  5 10  1  0
  5  4  1  0
  5 21  1  0
  6 21  1  0
  6  8  2  0
  7 29  1  0
 11 26  1  0
 11 13  1  0
 12  1  1  0
 12 25  1  0
 13  6  1  0
 13 20  1  0
 15 22  1  0
 16 32  1  0
 16  7  1  0
 17 16  1  0
 17 27  1  0
 18 28  1  0
 21 19  1  0
 23 12  2  0
 24  7  1  0
 24 18  1  0
 27 19  1  0
 27 22  1  0
 28 14  1  0
 29 28  2  0
 30 14  1  0
 30  3  1  0
 30  9  1  0
 31 12  1  0
 33 11  1  0
 33  2  1  0
 34 32  3  0
M  END
$$$$

     RDKit          3D

  8  7  0  0  0  0  0  0  0  0999 V2000
   36.9880   40.7620   28.4860 C   0  0  0  0  0  0  0  0  0  0  0  0
   37.5610   41.6950   27.7900 O   0  0  0  0  0  0  0  0  0  0  0  0
   35.7690   40.8110   28.6330 O   0  0  0  0  0  0  0  0  0  0  0  0
   36.7980   37.6160   29.0890 C   0  0  0  0  0  0  0  0  0  0  0  0
   35.6120   37.4830   28.8870 O   0  0  0  0  0  0  0  0  0  0  0  0
   37.7490   36.9970   28.5480 O   0  0  0  0  0  0  0  0  0  0  0  0
   37.7220   39.8770   29.3160 C   0  0  0  0  0  0  0  0  0  0  0  0
   36.9770   38.7620   30.0020 C   0  0  0  0  0  0  0  0  0  0  0  0
  1  3  1  0
  1  7  1  0
  2  1  2  0
  4  8  1  0
  5  4  1  0
  6  4  2  0
  7  8  1  0
M  END
$$$$

     RDKit          3D

  8  7  0  0  0  0  0  0  0  0999 V2000
   37.1120   35.1310   31.0750 C   0  0  0  0  0  0  0  0  0  0  0  0
   31.9500   37.3890   30.9670 C   0  0  0  0  0  0  0  0  0  0  0  0
   34.9860   35.6750   29.9830 C   0  0  0  0  0  0  0  0  0  0  0  0
   37.0830   36.7290   29.2090 C   0  0  0  0  0  0  0  0  0  0  0  0
   33.1830   36.7470   31.2420 O   0  0  0  0  0  0  0  0  0  0  0  0
   36.4420   36.0270   30.1740 C   0  0  0  0  0  0  0  0  0  0  0  0
   34.1870   36.8530   30.3590 C   0  0  0  0  0  0  0  0  0  0  0  0
   34.1380   37.7360   29.5410 O   0  0  0  0  0  0  0  0  0  0  0  0
  2  5  1  0
  3  6  1  0
  3  7  1  0
  4  6  2  0
  6  1  1  0
  7  5  1  0
  8  7  2  0
M  END
$$$$

     RDKit          3D

 25 26  0  0  0  0  0  0  0  0999 V2000
   39.2620   40.7570   24.2660 O   0  0  0  0  0  0  0  0  0  0  0  0
   37.6330   39.7040   28.7500 C   0  0  0  0  0  0  0  0  0  0  0  0
   36.1190   37.4270   31.4760 C   0  0  0  0  0  0  0  0  0  0  0  0
   33.5980   34.7370   34.5940 C   0  0  0  0  0  0  0  0  0  0  0  0
   38.7910   41.6800   24.8720 C   0  0  0  0  0  0  0  0  0  0  0  0
   32.1030   35.4920   34.6820 C   0  0  0  0  0  0  0  0  0  0  0  0
   38.1570   42.8190   24.2270 C   0  0  0  0  0  0  0  0  0  0  0  0
   37.7270   43.7720   24.9090 O   0  0  0  0  0  0  0  0  0  0  0  0
   38.0100   42.7620   23.0440 O   0  0  0  0  0  0  0  0  0  0  0  0
   34.7600   36.7720   31.5430 C   0  0  0  0  0  0  0  0  0  0  0  0
   34.0890   36.1350   32.6840 C   0  0  0  0  0  0  0  0  0  0  0  0
   38.7500   41.7420   27.4650 C   0  0  0  0  0  0  0  0  0  0  0  0
   38.4190   41.6040   26.0990 N   0  0  0  0  0  0  0  0  0  0  0  0
   36.6870   37.9390   30.1430 C   0  0  0  0  0  0  0  0  0  0  0  0
   31.4990   35.9170   33.2780 C   0  0  0  0  0  0  0  0  0  0  0  0
   32.2780   34.0110   34.6330 C   0  0  0  0  0  0  0  0  0  0  0  0
   39.4460   38.9980   27.0440 C   0  0  0  0  0  0  0  0  0  0  0  0
   37.8870   37.4080   28.0970 C   0  0  0  0  0  0  0  0  0  0  0  0
   33.9380   37.1420   30.4860 O   0  0  0  0  0  0  0  0  0  0  0  0
   37.0740   37.0300   29.1610 C   0  0  0  0  0  0  0  0  0  0  0  0
   38.2710   38.7580   27.9740 C   0  0  0  0  0  0  0  0  0  0  0  0
   32.7600   35.5700   32.3850 C   0  0  0  0  0  0  0  0  0  0  0  0
   37.7640   41.1930   28.5000 C   0  0  0  0  0  0  0  0  0  0  0  0
   33.8750   35.3020   33.3240 N   0  0  0  0  0  0  0  0  0  0  0  0
   36.8840   39.2730   29.8530 C   0  0  0  0  0  0  0  0  0  0  0  0
  1  5  2  0
  2 25  1  0
  3 10  1  0
  4 24  1  0
  4 16  1  0
  4  6  1  0
  5 13  1  0
  6 15  1  0
  7  5  1  0
  7  8  1  0
  9  7  2  0
 10 19  1  0
 10 11  1  0
 11 22  1  0
 11 24  1  0
 12 23  1  0
 13 12  2  3
 14  3  1  0
 16  6  1  0
 17 21  1  0
 18 20  2  0
 20 14  1  0
 21 18  1  0
 21  2  2  0
 23  2  1  0
 25 14  2  0
M  END
$$$$

     RDKit          3D

 14 15  0  0  0  0  0  0  0  0999 V2000
   36.6390   40.6670   27.6910 C   0  0  0  0  0  0  0  0  0  0  0  0
   38.8170   41.6980   28.0780 C   0  0  0  0  0  0  0  0  0  0  0  0
   37.6280   37.8700   30.6740 N   0  0  0  0  0  0  0  0  0  0  0  0
   37.4320   38.6840   29.6650 C   0  0  0  0  0  0  0  0  0  0  0  0
   35.5560   37.5930   29.8590 C   0  0  0  0  0  0  0  0  0  0  0  0
   36.1860   38.5540   29.1680 N   0  0  0  0  0  0  0  0  0  0  0  0
   34.5830   35.5180   31.1580 C   0  0  0  0  0  0  0  0  0  0  0  0
   37.9940   40.5310   28.3820 C   0  0  0  0  0  0  0  0  0  0  0  0
   38.3140   39.5220   29.1220 N   0  0  0  0  0  0  0  0  0  0  0  0
   36.4370   42.1780   27.6660 C   0  0  0  0  0  0  0  0  0  0  0  0
   36.4910   37.0660   30.8130 C   0  0  0  0  0  0  0  0  0  0  0  0
   36.1240   35.6890   31.4470 C   0  0  0  0  0  0  0  0  0  0  0  0
   37.8240   42.8220   27.7680 C   0  0  0  0  0  0  0  0  0  0  0  0
   37.4180   35.0320   31.9740 C   0  0  0  0  0  0  0  0  0  0  0  0
  1  8  1  0
  2  8  1  0
  3 11  1  0
  4  3  2  0
  5 11  2  0
  6  4  2  0
  6  5  1  0
  7 12  1  0
  8  9  1  0
  9  4  1  0
 10  1  1  0
 10 13  1  0
 11 12  1  0
 12 14  1  0
 13  2  1  0
M  END
$$$$

     RDKit          3D

 22 23  0  0  0  0  0  0  0  0999 V2000
   37.2180   33.5870   35.0600 N   0  0  0  0  0  0  0  0  0  0  0  0
   37.8690   35.0610   32.7360 O   0  0  0  0  0  0  0  0  0  0  0  0
   39.8050   38.2770   26.3260 O   0  0  0  0  0  0  0  0  0  0  0  0
   40.6380   40.2700   26.7560 O   0  0  0  0  0  0  0  0  0  0  0  0
   36.8920   36.2730   30.4280 C   0  0  0  0  0  0  0  0  0  0  0  0
   33.8970   34.9950   36.2540 C   0  0  0  0  0  0  0  0  0  0  0  0
   36.6770   35.1230   32.5570 C   0  0  0  0  0  0  0  0  0  0  0  0
   35.1290   34.8420   36.0170 C   0  0  0  0  0  0  0  0  0  0  0  0
   37.5200   39.8230   30.6290 N   0  0  0  0  0  0  0  0  0  0  0  0
   38.1740   38.2840   28.7950 C   0  0  0  0  0  0  0  0  0  0  0  0
   35.8350   34.4870   34.8370 C   0  0  0  0  0  0  0  0  0  0  0  0
   38.0420   36.9700   28.3060 C   0  0  0  0  0  0  0  0  0  0  0  0
   36.3520   35.3570   31.2470 N   0  0  0  0  0  0  0  0  0  0  0  0
   39.0710   40.7630   28.9500 C   0  0  0  0  0  0  0  0  0  0  0  0
   39.8750   39.2540   27.1060 N   0  0  0  0  0  0  0  0  0  0  0  0
   37.5900   38.5780   30.0860 C   0  0  0  0  0  0  0  0  0  0  0  0
   37.3390   35.9320   29.1390 C   0  0  0  0  0  0  0  0  0  0  0  0
   35.5880   34.6950   33.5400 C   0  0  0  0  0  0  0  0  0  0  0  0
   36.0000   35.8440   36.7120 C   0  0  0  0  0  0  0  0  0  0  0  0
   38.9410   39.3980   28.2380 C   0  0  0  0  0  0  0  0  0  0  0  0
   37.0220   37.6270   30.8900 C   0  0  0  0  0  0  0  0  0  0  0  0
   38.4160   40.9380   30.2840 C   0  0  0  0  0  0  0  0  0  0  0  0
  3 15  2  0
  4 15  2  0
  5 21  1  0
  5 13  1  0
  7  2  2  0
  7 18  1  0
  8  6  2  0
  8 19  1  0
 10 16  1  0
 11  1  1  0
 11  8  1  0
 12 10  2  0
 12 17  1  0
 13  7  1  0
 14 22  1  0
 15 20  1  0
 16  9  1  0
 16 21  2  0
 17  5  2  0
 18 11  1  0
 20 10  1  0
 20 14  2  0
 22  9  2  0
M  END
$$$$

     RDKit          3D

  1  0  0  0  0  0  0  0  0  0999 V2000
   69.9660    0.1360   59.1370 Cl  0  0  0  0  0  0  0  0  0  0  0  0
M  END
$$$$

     RDKit          3D

 22 23  0  0  0  0  0  0  0  0999 V2000
   39.3570   39.5150   30.0080 C   0  0  0  0  0  0  0  0  0  0  0  0
   35.4320   35.9350   32.3780 C   0  0  0  0  0  0  0  0  0  0  0  0
   38.8640   32.7270   35.1180 Cl  0  0  0  0  0  0  0  0  0  0  0  0
   38.0270   40.3510   28.2220 C   0  0  0  0  0  0  0  0  0  0  0  0
   38.8180   41.8750   30.1810 C   0  0  0  0  0  0  0  0  0  0  0  0
   33.0790   36.9140   30.4480 O   0  0  0  0  0  0  0  0  0  0  0  0
   35.4010   36.8300   31.1310 C   0  0  0  0  0  0  0  0  0  0  0  0
   36.8480   39.9980   28.5250 C   0  0  0  0  0  0  0  0  0  0  0  0
   36.2070   34.1250   34.9200 F   0  0  0  0  0  0  0  0  0  0  0  0
   36.7190   36.9900   30.5840 C   0  0  0  0  0  0  0  0  0  0  0  0
   37.7990   35.3130   31.8470 C   0  0  0  0  0  0  0  0  0  0  0  0
   36.5910   35.1880   32.8300 C   0  0  0  0  0  0  0  0  0  0  0  0
   36.9090   34.3570   33.8750 C   0  0  0  0  0  0  0  0  0  0  0  0
   39.1070   40.7600   29.1660 C   0  0  0  0  0  0  0  0  0  0  0  0
   37.9530   39.0520   30.3680 C   0  0  0  0  0  0  0  0  0  0  0  0
   38.7190   34.2540   31.6350 O   0  0  0  0  0  0  0  0  0  0  0  0
   34.3020   38.6980   29.6920 O   0  0  0  0  0  0  0  0  0  0  0  0
   37.0890   38.0260   29.7520 N   0  0  0  0  0  0  0  0  0  0  0  0
   37.8190   36.2940   30.9760 N   0  0  0  0  0  0  0  0  0  0  0  0
   38.9220   33.2300   32.6160 C   0  0  0  0  0  0  0  0  0  0  0  0
   38.4180   33.6910   33.9330 C   0  0  0  0  0  0  0  0  0  0  0  0
   34.2140   37.5450   30.3560 C   0  0  0  0  0  0  0  0  0  0  0  0
  1 15  1  0
  2 12  1  0
  4  8  2  0
  4 14  1  0
  7  2  2  0
 10 18  1  0
 10 19  1  0
 10  7  1  0
 11 12  1  0
 12 13  2  0
 13 21  1  0
 13  9  1  0
 14  1  1  0
 14  5  1  0
 16 11  1  0
 16 20  1  0
 17 22  2  0
 18 15  1  0
 19 11  2  0
 20 21  1  0
 21  3  1  0
 22  6  1  0
 22  7  1  0
M  END
$$$$
