
     RDKit          3D

 11 12  0  0  0  0  0  0  0  0999 V2000
   39.1230   37.7500   32.1060 O   0  0  0  0  0  0  0  0  0  0  0  0
   42.7950   36.5830   30.5010 C   0  0  0  0  0  0  0  0  0  0  0  0
   39.0250   38.2640   29.9390 C   0  0  0  0  0  0  0  0  0  0  0  0
   37.0960   39.7460   29.7710 C   0  0  0  0  0  0  0  0  0  0  0  0
   40.8530   36.8740   30.8150 N   0  0  0  0  0  0  0  0  0  0  0  0
   39.6060   37.5990   30.9910 C   0  0  0  0  0  0  0  0  0  0  0  0
   38.1830   39.1930   29.4640 C   0  0  0  0  0  0  0  0  0  0  0  0
   40.0370   38.4040   28.3980 S   0  0  0  0  0  0  0  0  0  0  0  0
   41.5060   36.0420   29.8070 C   0  0  0  0  0  0  0  0  0  0  0  0
   38.6420   39.3780   27.9200 C   0  0  0  0  0  0  0  0  0  0  0  0
   41.9930   37.5720   31.2940 O   0  0  0  0  0  0  0  0  0  0  0  0
  2 11  1  0
  3  6  1  0
  5  6  1  0
  5 11  1  0
  6  1  2  0
  7  4  2  0
  7  3  1  0
  8  3  1  0
  9  2  1  0
  9  5  1  0
 10  8  1  0
 10  7  1  0
M  END
$$$$

     RDKit          3D

 34 37  0  0  0  0  0  0  0  0999 V2000
   36.8130   35.7070   32.5100 N   0  0  0  0  0  0  0  0  0  0  0  0
   38.6220   37.3820   32.1080 C   0  0  0  0  0  0  0  0  0  0  0  0
   40.5030   35.6530   32.0720 C   0  0  0  0  0  0  0  0  0  0  0  0
   39.1320   36.1570   32.2830 C   0  0  0  0  0  0  0  0  0  0  0  0
   38.1910   38.5880   31.6290 C   0  0  0  0  0  0  0  0  0  0  0  0
   30.4580   32.3190   37.3450 C   0  0  0  0  0  0  0  0  0  0  0  0
   44.4900   37.4440   28.9500 N   0  0  0  0  0  0  0  0  0  0  0  0
   43.5860   38.4320   25.6980 O   0  0  0  0  0  0  0  0  0  0  0  0
   40.6200   39.0660   31.3020 C   0  0  0  0  0  0  0  0  0  0  0  0
   40.2360   34.1680   32.2390 C   0  0  0  0  0  0  0  0  0  0  0  0
   31.8560   34.0730   35.6510 O   0  0  0  0  0  0  0  0  0  0  0  0
   38.1370   35.0620   32.7690 C   0  0  0  0  0  0  0  0  0  0  0  0
   41.6790   38.0320   29.3540 C   0  0  0  0  0  0  0  0  0  0  0  0
   41.4670   36.2680   31.0740 C   0  0  0  0  0  0  0  0  0  0  0  0
   32.4530   32.7030   33.9180 C   0  0  0  0  0  0  0  0  0  0  0  0
   44.6560   38.5500   26.4850 C   0  0  0  0  0  0  0  0  0  0  0  0
   45.1680   36.2520   28.6580 O   0  0  0  0  0  0  0  0  0  0  0  0
   36.2950   34.1170   34.3660 C   0  0  0  0  0  0  0  0  0  0  0  0
   31.8450   32.8940   35.2850 C   0  0  0  0  0  0  0  0  0  0  0  0
   34.1790   34.1940   33.3190 N   0  0  0  0  0  0  0  0  0  0  0  0
   40.8620   37.6700   30.6490 C   0  0  0  0  0  0  0  0  0  0  0  0
   33.9050   33.0710   34.1900 C   0  0  0  0  0  0  0  0  0  0  0  0
   45.4000   38.5470   25.4750 O   0  0  0  0  0  0  0  0  0  0  0  0
   43.0260   36.7460   31.0020 C   0  0  0  0  0  0  0  0  0  0  0  0
   36.7570   34.8460   33.2320 C   0  0  0  0  0  0  0  0  0  0  0  0
   44.8930   38.3090   27.7910 C   0  0  0  0  0  0  0  0  0  0  0  0
   31.1400   31.8680   36.1280 C   0  0  0  0  0  0  0  0  0  0  0  0
   42.0750   36.9480   28.5240 C   0  0  0  0  0  0  0  0  0  0  0  0
   43.0800   37.3260   29.5310 C   0  0  0  0  0  0  0  0  0  0  0  0
   34.9300   33.4930   34.0800 C   0  0  0  0  0  0  0  0  0  0  0  0
   39.2450   39.6690   31.4010 C   0  0  0  0  0  0  0  0  0  0  0  0
   38.7910   33.9000   32.5380 C   0  0  0  0  0  0  0  0  0  0  0  0
   44.0340   35.6690   31.3080 C   0  0  0  0  0  0  0  0  0  0  0  0
   30.3100   30.8020   35.3910 C   0  0  0  0  0  0  0  0  0  0  0  0
  1 25  2  0
  2  4  2  0
  3 10  1  0
  3  4  1  0
  5  2  2  0
  7 29  1  0
  8 16  1  0
  9 31  1  0
 10 32  1  0
 12 25  1  0
 13 28  1  0
 13 29  1  0
 13 21  1  0
 14  3  1  0
 15 22  1  0
 15 19  1  0
 16 26  1  0
 17  7  1  0
 19 11  2  0
 19 27  1  0
 20 30  1  0
 20 22  1  0
 21 14  1  0
 21  9  1  0
 23 16  2  0
 24 14  1  0
 24 33  1  0
 25 18  1  0
 26  7  1  0
 27  6  1  0
 28 29  1  0
 29 24  1  0
 30 22  1  0
 30 18  1  0
 31  5  1  0
 32 12  1  0
 34 27  1  0
M  END
$$$$

     RDKit          3D

 16 17  0  0  0  0  0  0  0  0999 V2000
   40.9080   33.3610   32.5360 O   0  0  0  0  0  0  0  0  0  0  0  0
   40.2360   38.4360   31.4210 C   0  0  0  0  0  0  0  0  0  0  0  0
   41.9400   38.6040   33.0580 C   0  0  0  0  0  0  0  0  0  0  0  0
   41.1800   37.6490   30.4780 C   0  0  0  0  0  0  0  0  0  0  0  0
   42.1240   34.2340   30.7680 N   0  0  0  0  0  0  0  0  0  0  0  0
   43.6760   40.3420   33.1180 C   0  0  0  0  0  0  0  0  0  0  0  0
   41.3800   34.3370   31.9000 C   0  0  0  0  0  0  0  0  0  0  0  0
   42.4450   39.8510   32.3810 C   0  0  0  0  0  0  0  0  0  0  0  0
   40.4320   38.3800   32.9610 C   0  0  0  0  0  0  0  0  0  0  0  0
   41.0540   35.7280   32.2920 C   0  0  0  0  0  0  0  0  0  0  0  0
   39.9930   37.7620   34.2200 C   0  0  0  0  0  0  0  0  0  0  0  0
   42.2000   35.4440   29.9760 C   0  0  0  0  0  0  0  0  0  0  0  0
   39.9140   36.3830   34.6720 C   0  0  0  0  0  0  0  0  0  0  0  0
   41.4790   40.9590   32.0040 C   0  0  0  0  0  0  0  0  0  0  0  0
   41.7250   36.2760   30.8940 C   0  0  0  0  0  0  0  0  0  0  0  0
   40.1870   35.8670   33.6240 C   0  0  0  0  0  0  0  0  0  0  0  0
  2  9  1  0
  4 15  2  0
  4  2  1  0
  5  7  1  0
  7 10  1  0
  7  1  2  0
  8  3  1  0
  8  6  1  0
  9  3  1  0
  9 11  1  0
 10 16  1  0
 11 13  1  0
 12  5  1  0
 12 15  1  0
 14  8  1  0
 15 10  1  0
 16 13  1  0
M  END
$$$$

     RDKit          3D

 25 28  0  0  0  0  0  0  0  0999 V2000
   43.2160   39.2200   30.1180 O   0  0  0  0  0  0  0  0  0  0  0  0
   42.2590   38.1780   30.4270 C   0  0  0  0  0  0  0  0  0  0  0  0
   38.2090   32.5350   32.6970 C   0  0  0  0  0  0  0  0  0  0  0  0
   38.7420   37.2630   31.0850 C   0  0  0  0  0  0  0  0  0  0  0  0
   39.5790   35.4670   32.3100 C   0  0  0  0  0  0  0  0  0  0  0  0
   36.5320   37.3150   30.5980 C   0  0  0  0  0  0  0  0  0  0  0  0
   39.8330   39.9620   28.8560 O   0  0  0  0  0  0  0  0  0  0  0  0
   39.7880   36.7710   31.8350 C   0  0  0  0  0  0  0  0  0  0  0  0
   37.5170   36.7360   31.2390 C   0  0  0  0  0  0  0  0  0  0  0  0
   37.9140   31.4300   33.3010 N   0  0  0  0  0  0  0  0  0  0  0  0
   38.5650   29.1560   34.4890 O   0  0  0  0  0  0  0  0  0  0  0  0
   41.1310   38.0740   29.3870 C   0  0  0  0  0  0  0  0  0  0  0  0
   37.6470   38.4730   29.7420 N   0  0  0  0  0  0  0  0  0  0  0  0
   41.6730   38.3960   31.8260 C   0  0  0  0  0  0  0  0  0  0  0  0
   38.7850   38.2030   30.2120 N   0  0  0  0  0  0  0  0  0  0  0  0
   38.2940   34.9810   32.4530 C   0  0  0  0  0  0  0  0  0  0  0  0
   36.4740   29.2560   35.6650 C   0  0  0  0  0  0  0  0  0  0  0  0
   37.1360   29.3770   34.2870 C   0  0  0  0  0  0  0  0  0  0  0  0
   36.8130   30.7210   33.6790 C   0  0  0  0  0  0  0  0  0  0  0  0
   37.2610   35.6700   32.0730 C   0  0  0  0  0  0  0  0  0  0  0  0
   38.1630   33.8230   33.4690 C   0  0  0  0  0  0  0  0  0  0  0  0
   41.0500   39.5520   32.1100 O   0  0  0  0  0  0  0  0  0  0  0  0
   40.9310   37.3290   32.2700 N   0  0  0  0  0  0  0  0  0  0  0  0
   42.3700   39.5690   32.5810 C   0  0  0  0  0  0  0  0  0  0  0  0
   39.9420   38.9220   29.7760 C   0  0  0  0  0  0  0  0  0  0  0  0
  2  1  1  0
  2 14  1  0
  3 10  1  0
  3 21  1  0
  4  9  2  0
  4  8  1  0
  5 16  1  0
  6  9  1  0
  8 23  1  0
  8  5  2  0
  9 20  1  0
 10 19  1  0
 12 25  1  0
 12  2  1  0
 13 15  1  0
 13  6  2  0
 14 22  1  0
 14 23  1  0
 14 24  1  0
 15  4  1  0
 16 21  1  0
 18 11  1  0
 18 17  1  0
 19 18  1  0
 20 16  2  0
 22 24  1  0
 25  7  1  0
 25 15  1  0
M  END
$$$$

     RDKit          3D

 13 14  0  0  0  0  0  0  0  0999 V2000
   41.3520   36.8910   32.3780 N   0  0  0  0  0  0  0  0  0  0  0  0
   37.1330   37.1440   31.9610 C   0  0  0  0  0  0  0  0  0  0  0  0
   39.9810   36.5430   32.8290 C   0  0  0  0  0  0  0  0  0  0  0  0
   35.8150   37.2120   31.6530 C   0  0  0  0  0  0  0  0  0  0  0  0
   37.1150   34.7240   31.6510 C   0  0  0  0  0  0  0  0  0  0  0  0
   42.9270   36.8850   30.5910 C   0  0  0  0  0  0  0  0  0  0  0  0
   35.1280   36.0650   31.3050 C   0  0  0  0  0  0  0  0  0  0  0  0
   41.7790   36.1060   31.1960 C   0  0  0  0  0  0  0  0  0  0  0  0
   35.7450   34.8350   31.3860 C   0  0  0  0  0  0  0  0  0  0  0  0
   39.3780   36.0000   31.7940 N   0  0  0  0  0  0  0  0  0  0  0  0
   40.3620   35.8850   30.6070 C   0  0  0  0  0  0  0  0  0  0  0  0
   37.8050   35.8100   31.8720 C   0  0  0  0  0  0  0  0  0  0  0  0
   42.5670   34.7080   31.1370 C   0  0  0  0  0  0  0  0  0  0  0  0
  1  3  1  0
  4  2  2  0
  5 12  2  0
  6  8  1  0
  7  9  2  0
  7  4  1  0
  8  1  1  0
  9  5  1  0
 10 12  1  0
 10  3  1  0
 11  8  1  0
 11 10  1  0
 12  2  1  0
 13  8  1  0
M  END
$$$$

     RDKit          3D

 11 12  0  0  0  0  0  0  0  0999 V2000
   42.0520   37.1850   29.9740 C   0  0  0  0  0  0  0  0  0  0  0  0
   40.6910   37.3280   31.9420 C   0  0  0  0  0  0  0  0  0  0  0  0
   41.5940   35.2430   31.2790 O   0  0  0  0  0  0  0  0  0  0  0  0
   41.3600   36.4630   30.9720 C   0  0  0  0  0  0  0  0  0  0  0  0
   42.0470   38.6490   30.2830 C   0  0  0  0  0  0  0  0  0  0  0  0
   42.4260   40.0790   30.2220 C   0  0  0  0  0  0  0  0  0  0  0  0
   40.7170   39.9930   31.7150 C   0  0  0  0  0  0  0  0  0  0  0  0
   41.9290   40.7070   31.4010 N   0  0  0  0  0  0  0  0  0  0  0  0
   40.0550   40.0850   32.9230 O   0  0  0  0  0  0  0  0  0  0  0  0
   43.1780   40.9980   29.4270 C   0  0  0  0  0  0  0  0  0  0  0  0
   41.2680   38.6420   31.5820 C   0  0  0  0  0  0  0  0  0  0  0  0
  1  5  2  0
  1  4  1  0
  4  3  2  0
  4  2  1  0
  5 11  1  0
  6 10  1  0
  6  5  1  0
  6  8  1  0
  7  9  1  0
  8  7  1  0
 11  7  1  0
 11  2  1  0
M  END
$$$$

     RDKit          3D

  5  5  0  0  0  0  0  0  0  0999 V2000
   42.6850   37.2660   29.9100 N   0  0  0  0  0  0  0  0  0  0  0  0
   42.0430   35.1830   30.6380 N   0  0  0  0  0  0  0  0  0  0  0  0
   42.1890   36.0640   29.4750 C   0  0  0  0  0  0  0  0  0  0  0  0
   43.9380   37.7920   29.3990 C   0  0  0  0  0  0  0  0  0  0  0  0
   43.6220   37.7930   30.8720 C   0  0  0  0  0  0  0  0  0  0  0  0
  1  5  1  0
  3  1  1  0
  3  2  1  0
  4  1  1  0
  4  5  1  0
M  END
$$$$

     RDKit          3D

 11 10  0  0  0  0  0  0  0  0999 V2000
   40.7550   35.2680   30.5510 C   0  0  0  0  0  0  0  0  0  0  0  0
   41.1870   36.5360   31.1390 N   0  0  0  0  0  0  0  0  0  0  0  0
   40.7040   39.0810   28.7230 C   0  0  0  0  0  0  0  0  0  0  0  0
   42.0890   36.4740   32.3410 C   0  0  0  0  0  0  0  0  0  0  0  0
   43.2020   36.4960   29.6830 C   0  0  0  0  0  0  0  0  0  0  0  0
   41.4000   40.1220   28.6150 O   0  0  0  0  0  0  0  0  0  0  0  0
   42.2200   38.6400   30.7110 O   0  0  0  0  0  0  0  0  0  0  0  0
   41.8130   37.3660   30.1870 C   0  0  0  0  0  0  0  0  0  0  0  0
   41.0160   37.6190   28.8880 C   0  0  0  0  0  0  0  0  0  0  0  0
   41.0060   41.5380   28.6740 C   0  0  0  0  0  0  0  0  0  0  0  0
   41.3610   42.1560   27.3150 C   0  0  0  0  0  0  0  0  0  0  0  0
  1  2  1  0
  2  4  1  0
  3  9  1  0
  6 10  1  0
  6  3  1  0
  8  5  1  0
  8  7  1  0
  8  2  1  0
  9  8  1  0
 11 10  1  0
M  END
$$$$

     RDKit          3D

 19 20  0  0  0  0  0  0  0  0999 V2000
   39.8510   34.2590   33.0440 N   0  0  0  0  0  0  0  0  0  0  0  0
   37.5170   33.7940   32.7710 C   0  0  0  0  0  0  0  0  0  0  0  0
   36.0680   34.2940   33.3520 N   0  0  0  0  0  0  0  0  0  0  0  0
   37.0540   32.5270   32.9230 C   0  0  0  0  0  0  0  0  0  0  0  0
   38.9560   33.6750   32.3110 C   0  0  0  0  0  0  0  0  0  0  0  0
   40.8610   37.7030   32.2740 C   0  0  0  0  0  0  0  0  0  0  0  0
   35.3780   33.7700   34.1590 C   0  0  0  0  0  0  0  0  0  0  0  0
   36.9220   34.7780   32.9570 C   0  0  0  0  0  0  0  0  0  0  0  0
   35.8650   32.5850   33.5000 N   0  0  0  0  0  0  0  0  0  0  0  0
   40.9920   34.8730   32.5380 C   0  0  0  0  0  0  0  0  0  0  0  0
   39.3760   38.3130   32.1880 C   0  0  0  0  0  0  0  0  0  0  0  0
   41.6490   38.9390   32.7500 C   0  0  0  0  0  0  0  0  0  0  0  0
   42.2610   39.7100   31.6500 C   0  0  0  0  0  0  0  0  0  0  0  0
   36.7750   36.1240   32.9150 O   0  0  0  0  0  0  0  0  0  0  0  0
   40.8690   36.2540   32.3160 N   0  0  0  0  0  0  0  0  0  0  0  0
   41.9230   34.1800   32.2570 O   0  0  0  0  0  0  0  0  0  0  0  0
   41.8860   39.1400   34.2080 C   0  0  0  0  0  0  0  0  0  0  0  0
   38.4050   37.3550   31.5510 C   0  0  0  0  0  0  0  0  0  0  0  0
   42.0110   36.8780   31.6890 C   0  0  0  0  0  0  0  0  0  0  0  0
  2  5  1  0
  2  4  1  0
  2  8  1  0
  3  7  1  0
  4  9  1  0
  5  1  1  0
  6 11  1  0
  6 15  1  0
  6 12  1  0
  8  3  1  0
  9  7  1  0
 10  1  1  0
 12 17  1  0
 13 12  1  0
 14  8  2  0
 15 10  1  0
 16 10  2  0
 18 11  1  0
 19  6  1  0
 19 15  1  0
M  END
$$$$

     RDKit          3D

  9  9  0  0  0  0  0  0  0  0999 V2000
   40.9420   39.5190   28.6510 N   0  0  0  0  0  0  0  0  0  0  0  0
   42.6310   36.3880   30.0240 C   0  0  0  0  0  0  0  0  0  0  0  0
   42.8960   39.1690   30.4430 C   0  0  0  0  0  0  0  0  0  0  0  0
   42.9580   40.4450   30.7290 O   0  0  0  0  0  0  0  0  0  0  0  0
   41.8660   37.2590   29.2200 C   0  0  0  0  0  0  0  0  0  0  0  0
   43.4960   36.8980   30.9150 C   0  0  0  0  0  0  0  0  0  0  0  0
   43.6410   38.2770   31.0930 N   0  0  0  0  0  0  0  0  0  0  0  0
   40.8900   36.7530   28.4260 O   0  0  0  0  0  0  0  0  0  0  0  0
   41.9930   38.7750   29.4240 C   0  0  0  0  0  0  0  0  0  0  0  0
  1  9  1  0
  2  6  2  0
  3  4  2  0
  3  7  1  0
  5  9  2  0
  5  2  1  0
  6  7  1  0
  8  5  1  0
  9  3  1  0
M  END
$$$$

     RDKit          3D

  7  6  0  0  0  0  0  0  0  0999 V2000
   37.3600   35.5600   32.3330 C   0  0  0  0  0  0  0  0  0  0  0  0
   37.9650   34.9640   33.2260 O   0  0  0  0  0  0  0  0  0  0  0  0
   35.5600   36.4600   30.7070 O   0  0  0  0  0  0  0  0  0  0  0  0
   37.8740   36.1130   31.3950 C   0  0  0  0  0  0  0  0  0  0  0  0
   35.7510   35.9090   32.0280 C   0  0  0  0  0  0  0  0  0  0  0  0
   39.2920   36.4240   31.7220 O   0  0  0  0  0  0  0  0  0  0  0  0
   40.2530   35.5300   31.4180 C   0  0  0  0  0  0  0  0  0  0  0  0
  1  2  2  0
  3  5  1  0
  4  6  1  0
  4  1  1  0
  5  1  1  0
  7  6  1  0
M  END
$$$$

     RDKit          3D

 15 16  0  0  0  0  0  0  0  0999 V2000
   40.0700   36.9820   31.5020 C   0  0  0  0  0  0  0  0  0  0  0  0
   36.2460   33.8970   33.2330 C   0  0  0  0  0  0  0  0  0  0  0  0
   38.2560   34.6620   32.7720 C   0  0  0  0  0  0  0  0  0  0  0  0
   39.6400   34.5720   32.3210 C   0  0  0  0  0  0  0  0  0  0  0  0
   40.3230   35.5160   31.3260 C   0  0  0  0  0  0  0  0  0  0  0  0
   33.9810   36.8200   32.5600 C   0  0  0  0  0  0  0  0  0  0  0  0
   37.1270   36.9260   32.3080 O   0  0  0  0  0  0  0  0  0  0  0  0
   37.1440   35.6580   32.5080 C   0  0  0  0  0  0  0  0  0  0  0  0
   35.8580   34.9740   32.6980 C   0  0  0  0  0  0  0  0  0  0  0  0
   37.6440   33.6670   33.3730 N   0  0  0  0  0  0  0  0  0  0  0  0
   41.4530   37.6100   31.6690 C   0  0  0  0  0  0  0  0  0  0  0  0
   41.7060   38.6980   30.6880 C   0  0  0  0  0  0  0  0  0  0  0  0
   34.5230   35.4370   32.2520 C   0  0  0  0  0  0  0  0  0  0  0  0
   41.8290   38.5760   32.5040 O   0  0  0  0  0  0  0  0  0  0  0  0
   41.2500   40.0620   30.8150 N   0  0  0  0  0  0  0  0  0  0  0  0
  2 10  1  0
  3 10  1  0
  4  3  2  3
  5  1  1  0
  5  4  1  0
  7  8  2  0
  8  9  1  0
  8  3  1  0
  9  2  2  0
 11  1  1  0
 11 14  1  0
 12 15  1  0
 12 11  1  0
 12 14  1  0
 13  6  1  0
 13  9  1  0
M  END
$$$$

     RDKit          3D

 18 20  0  0  0  0  0  0  0  0999 V2000
   39.7340   33.2610   34.7340 C   0  0  0  0  0  0  0  0  0  0  0  0
   38.2930   32.7710   33.7670 C   0  0  0  0  0  0  0  0  0  0  0  0
   36.6780   31.4100   33.1230 O   0  0  0  0  0  0  0  0  0  0  0  0
   41.4700   40.2410   32.9870 O   0  0  0  0  0  0  0  0  0  0  0  0
   35.5010   31.2190   33.8930 C   0  0  0  0  0  0  0  0  0  0  0  0
   40.5650   36.7120   33.0950 C   0  0  0  0  0  0  0  0  0  0  0  0
   40.8450   38.0260   33.5540 C   0  0  0  0  0  0  0  0  0  0  0  0
   40.1880   36.1030   35.4550 O   0  0  0  0  0  0  0  0  0  0  0  0
   37.6850   32.0590   33.7430 C   0  0  0  0  0  0  0  0  0  0  0  0
   38.1090   34.2430   33.4130 C   0  0  0  0  0  0  0  0  0  0  0  0
   39.9490   35.8200   34.2350 C   0  0  0  0  0  0  0  0  0  0  0  0
   41.1770   38.3430   34.8150 N   0  0  0  0  0  0  0  0  0  0  0  0
   39.2350   34.5230   34.0990 C   0  0  0  0  0  0  0  0  0  0  0  0
   40.6990   39.1590   32.5930 C   0  0  0  0  0  0  0  0  0  0  0  0
   38.7800   32.1780   34.4420 C   0  0  0  0  0  0  0  0  0  0  0  0
   40.4880   38.2550   30.2620 C   0  0  0  0  0  0  0  0  0  0  0  0
   41.3590   38.9020   31.2190 C   0  0  0  0  0  0  0  0  0  0  0  0
   40.6710   39.7930   30.2500 C   0  0  0  0  0  0  0  0  0  0  0  0
  2 10  1  0
  2 15  1  0
  3  5  1  0
  6  7  1  0
  6 11  1  0
  7 12  1  0
  9  3  1  0
  9  2  1  0
  9 15  1  0
 10 13  1  0
 11  8  2  0
 13 11  1  0
 13  1  1  0
 14  4  1  0
 14  7  1  0
 15  1  1  0
 16 17  1  0
 17 14  1  0
 18 16  1  0
 18 17  1  0
M  END
$$$$

     RDKit          3D

 11 11  0  0  0  0  0  0  0  0999 V2000
   35.8230   35.4220   34.3900 O   0  0  0  0  0  0  0  0  0  0  0  0
   38.3200   34.5600   32.1840 C   0  0  0  0  0  0  0  0  0  0  0  0
   40.0590   36.9380   32.1590 C   0  0  0  0  0  0  0  0  0  0  0  0
   42.0340   35.4260   31.0760 Cl  0  0  0  0  0  0  0  0  0  0  0  0
   37.4220   35.5450   32.6410 C   0  0  0  0  0  0  0  0  0  0  0  0
   38.8350   37.5010   32.2770 C   0  0  0  0  0  0  0  0  0  0  0  0
   40.4240   35.8210   31.6400 C   0  0  0  0  0  0  0  0  0  0  0  0
   35.1520   35.0190   32.3120 O   0  0  0  0  0  0  0  0  0  0  0  0
   37.7210   36.8940   32.6910 C   0  0  0  0  0  0  0  0  0  0  0  0
   36.0390   35.2400   33.1560 C   0  0  0  0  0  0  0  0  0  0  0  0
   39.5660   34.6060   31.6550 C   0  0  0  0  0  0  0  0  0  0  0  0
  2  5  1  0
  3  6  1  0
  4  7  1  0
  5  9  1  0
  5 10  1  0
  6  9  2  0
  7 11  1  0
  7  3  2  0
  8 10  2  0
 10  1  1  0
 11  2  2  0
M  END
$$$$

     RDKit          3D

 25 28  0  0  0  0  0  0  0  0999 V2000
   43.0070   35.5320   29.5680 C   0  0  0  0  0  0  0  0  0  0  0  0
   40.5770   40.1580   28.6370 N   0  0  0  0  0  0  0  0  0  0  0  0
   38.1280   39.0970   28.1700 C   0  0  0  0  0  0  0  0  0  0  0  0
   39.7340   40.7240   27.6910 C   0  0  0  0  0  0  0  0  0  0  0  0
   42.2120   37.3670   28.1120 C   0  0  0  0  0  0  0  0  0  0  0  0
   33.7270   34.7360   34.8980 C   0  0  0  0  0  0  0  0  0  0  0  0
   38.4390   40.3490   27.7190 C   0  0  0  0  0  0  0  0  0  0  0  0
   42.3480   36.3240   30.6880 C   0  0  0  0  0  0  0  0  0  0  0  0
   40.3010   36.6110   31.8460 C   0  0  0  0  0  0  0  0  0  0  0  0
   39.1840   38.3740   28.5780 C   0  0  0  0  0  0  0  0  0  0  0  0
   41.6410   38.1190   28.9920 C   0  0  0  0  0  0  0  0  0  0  0  0
   40.4630   38.8800   28.6700 C   0  0  0  0  0  0  0  0  0  0  0  0
   36.4520   36.0060   31.0690 C   0  0  0  0  0  0  0  0  0  0  0  0
   36.6000   36.5770   30.0860 N   0  0  0  0  0  0  0  0  0  0  0  0
   33.7130   35.8430   32.0240 C   0  0  0  0  0  0  0  0  0  0  0  0
   34.8040   35.3430   34.1300 O   0  0  0  0  0  0  0  0  0  0  0  0
   40.8880   35.8240   30.7490 O   0  0  0  0  0  0  0  0  0  0  0  0
   38.6760   35.8530   32.2450 C   0  0  0  0  0  0  0  0  0  0  0  0
   43.1740   36.3090   28.2710 C   0  0  0  0  0  0  0  0  0  0  0  0
   34.8460   35.0730   32.7220 C   0  0  0  0  0  0  0  0  0  0  0  0
   37.4620   35.0910   32.9230 C   0  0  0  0  0  0  0  0  0  0  0  0
   41.9110   37.7800   30.3820 C   0  0  0  0  0  0  0  0  0  0  0  0
   36.2450   35.5620   32.1940 C   0  0  0  0  0  0  0  0  0  0  0  0
   40.5740   37.6860   31.2090 C   0  0  0  0  0  0  0  0  0  0  0  0
   41.6670   38.6130   31.4940 O   0  0  0  0  0  0  0  0  0  0  0  0
  2 12  1  0
  3 10  1  0
  4  7  1  0
  4  2  1  0
  5 19  1  0
  5 11  2  0
  7  3  1  0
  8  1  1  0
  8 17  1  0
  9 18  1  0
 10 12  1  0
 12 11  1  0
 14 13  3  0
 16  6  1  0
 17  9  1  0
 18 21  1  0
 19  1  1  0
 20 15  1  0
 20 16  1  0
 22 11  1  0
 22  8  1  0
 22 24  1  0
 22 25  1  0
 23 13  1  0
 23 20  1  0
 23 21  1  0
 24 25  1  0
 24  9  1  0
M  END
$$$$

     RDKit          3D

  2  1  0  0  0  0  0  0  0  0999 V2000
   42.8550   36.8930   24.7870 C   0  0  0  0  0  0  0  0  0  0  0  0
   43.6830   37.2920   24.8620 O   0  0  0  0  0  0  0  0  0  0  0  0
  1  2  2  0
M  END
$$$$

     RDKit          3D

  5  5  0  0  0  0  0  0  0  0999 V2000
   43.1360   36.0840   28.5720 C   0  0  0  0  0  0  0  0  0  0  0  0
   42.2020   37.0400   30.3120 N   0  0  0  0  0  0  0  0  0  0  0  0
   43.1340   37.1880   29.4300 C   0  0  0  0  0  0  0  0  0  0  0  0
   42.1660   35.2920   28.9750 N   0  0  0  0  0  0  0  0  0  0  0  0
   41.6470   35.8270   30.1190 C   0  0  0  0  0  0  0  0  0  0  0  0
  1  4  2  0
  1  3  1  0
  3  2  1  0
  4  5  1  0
  5  2  2  0
M  END
$$$$

     RDKit          3D

 15 15  0  0  0  0  0  0  0  0999 V2000
   36.6500   33.6650   33.6270 C   0  0  0  0  0  0  0  0  0  0  0  0
   42.3900   35.3430   30.3700 N   0  0  0  0  0  0  0  0  0  0  0  0
   40.3280   36.2060   31.1470 C   0  0  0  0  0  0  0  0  0  0  0  0
   35.9070   34.9450   33.1170 C   0  0  0  0  0  0  0  0  0  0  0  0
   41.1960   37.4500   30.9070 C   0  0  0  0  0  0  0  0  0  0  0  0
   38.9830   36.6610   31.7360 C   0  0  0  0  0  0  0  0  0  0  0  0
   38.1590   35.8140   32.5200 C   0  0  0  0  0  0  0  0  0  0  0  0
   38.7990   34.9720   33.4350 C   0  0  0  0  0  0  0  0  0  0  0  0
   34.4040   34.8420   32.8920 C   0  0  0  0  0  0  0  0  0  0  0  0
   39.4140   39.1720   30.1740 N   0  0  0  0  0  0  0  0  0  0  0  0
   43.7920   34.9440   30.4500 C   0  0  0  0  0  0  0  0  0  0  0  0
   40.3660   38.5890   30.3730 C   0  0  0  0  0  0  0  0  0  0  0  0
   41.4350   35.2350   31.4610 C   0  0  0  0  0  0  0  0  0  0  0  0
   38.1670   33.7660   33.9850 C   0  0  0  0  0  0  0  0  0  0  0  0
   36.7360   35.8740   32.4640 C   0  0  0  0  0  0  0  0  0  0  0  0
  1 14  1  0
  2 11  1  0
  2 13  1  0
  3  5  1  0
  3 13  1  0
  3  6  1  0
  4  9  1  0
  4  1  1  0
  6  7  1  0
  7  8  1  0
  8 14  1  0
 10 12  3  0
 12  5  1  0
 15  7  2  0
 15  4  1  0
M  END
$$$$

     RDKit          3D

 42 45  0  0  0  0  0  0  0  0999 V2000
   44.3960   39.8590   27.0600 C   0  0  0  0  0  0  0  0  0  0  0  0
   28.9350   29.6510   38.6290 C   0  0  0  0  0  0  0  0  0  0  0  0
   41.4040   41.5340   29.1090 O   0  0  0  0  0  0  0  0  0  0  0  0
   45.7140   42.7420   25.7920 C   0  0  0  0  0  0  0  0  0  0  0  0
   36.7390   37.3330   32.1880 C   0  0  0  0  0  0  0  0  0  0  0  0
   37.8370   39.0060   30.8170 C   0  0  0  0  0  0  0  0  0  0  0  0
   32.7890   28.6960   36.0710 C   0  0  0  0  0  0  0  0  0  0  0  0
   37.6240   37.5950   31.0230 N   0  0  0  0  0  0  0  0  0  0  0  0
   41.9170   39.5200   30.0640 C   0  0  0  0  0  0  0  0  0  0  0  0
   33.2210   29.5750   33.4730 O   0  0  0  0  0  0  0  0  0  0  0  0
   39.7280   40.3070   29.9830 C   0  0  0  0  0  0  0  0  0  0  0  0
   33.9290   34.7900   32.6590 C   0  0  0  0  0  0  0  0  0  0  0  0
   41.4740   38.4560   30.7170 C   0  0  0  0  0  0  0  0  0  0  0  0
   45.7110   41.9420   26.7000 C   0  0  0  0  0  0  0  0  0  0  0  0
   46.9780   41.1790   27.1340 C   0  0  0  0  0  0  0  0  0  0  0  0
   32.8790   32.2110   33.0160 O   0  0  0  0  0  0  0  0  0  0  0  0
   33.9300   32.3270   33.3560 C   0  0  0  0  0  0  0  0  0  0  0  0
   31.1960   26.8020   37.9550 C   0  0  0  0  0  0  0  0  0  0  0  0
   45.4130   39.8520   26.0860 N   0  0  0  0  0  0  0  0  0  0  0  0
   33.6790   29.6550   35.6090 N   0  0  0  0  0  0  0  0  0  0  0  0
   47.5640   39.9000   26.4680 C   0  0  0  0  0  0  0  0  0  0  0  0
   30.0270   28.6030   38.7720 C   0  0  0  0  0  0  0  0  0  0  0  0
   33.8320   30.1320   34.3360 C   0  0  0  0  0  0  0  0  0  0  0  0
   36.0570   33.6870   32.7930 C   0  0  0  0  0  0  0  0  0  0  0  0
   39.2890   39.2120   30.6350 C   0  0  0  0  0  0  0  0  0  0  0  0
   34.6680   33.6570   32.9610 C   0  0  0  0  0  0  0  0  0  0  0  0
   30.9920   28.3670   38.0400 C   0  0  0  0  0  0  0  0  0  0  0  0
   45.7080   40.5840   28.9770 C   0  0  0  0  0  0  0  0  0  0  0  0
   41.1840   40.6420   30.1910 C   0  0  0  0  0  0  0  0  0  0  0  0
   32.2890   28.8730   37.4660 C   0  0  0  0  0  0  0  0  0  0  0  0
   40.2330   38.3870   31.2610 C   0  0  0  0  0  0  0  0  0  0  0  0
   46.4260   38.9630   26.6560 C   0  0  0  0  0  0  0  0  0  0  0  0
   34.6210   35.9600   32.2990 C   0  0  0  0  0  0  0  0  0  0  0  0
   36.7870   34.8310   32.4640 C   0  0  0  0  0  0  0  0  0  0  0  0
   33.2990   29.3620   38.4800 C   0  0  0  0  0  0  0  0  0  0  0  0
   36.0630   36.0070   32.3360 C   0  0  0  0  0  0  0  0  0  0  0  0
   43.0900   39.7050   29.3060 C   0  0  0  0  0  0  0  0  0  0  0  0
   43.6770   40.8430   29.3030 N   0  0  0  0  0  0  0  0  0  0  0  0
   44.5470   41.8890   27.5430 C   0  0  0  0  0  0  0  0  0  0  0  0
   34.4750   31.3340   34.0630 N   0  0  0  0  0  0  0  0  0  0  0  0
   44.6370   40.6560   28.2320 C   0  0  0  0  0  0  0  0  0  0  0  0
   44.3940   40.1740   25.9070 C   0  0  0  0  0  0  0  0  0  0  0  0
  1 42  1  0
  1 41  1  0
  2 22  1  0
  4 14  2  0
  5 36  1  0
  6  8  1  0
  7 30  1  0
  8  5  1  0
  9 29  1  0
  9 13  2  0
 10 23  2  0
 11 29  1  0
 11 25  2  0
 12 26  1  0
 13 31  1  0
 14 15  1  0
 14 39  1  0
 16 17  2  0
 17 40  1  0
 19 42  1  0
 19 32  1  0
 19  1  1  0
 20  7  1  0
 21 32  1  0
 21 15  1  0
 23 20  1  0
 24 26  2  0
 25  6  1  0
 25 31  1  0
 26 17  1  0
 27 18  1  0
 27 22  1  0
 29  3  1  0
 30 27  1  0
 30 35  1  0
 33 36  1  0
 33 12  2  0
 34 24  1  0
 36 34  2  0
 37  9  1  0
 38 37  1  0
 39 41  1  0
 40 23  1  0
 41 28  1  0
 41 38  1  0
M  END
$$$$

     RDKit          3D

 15 16  0  0  0  0  0  0  0  0999 V2000
   39.8200   38.9280   32.1080 C   0  0  0  0  0  0  0  0  0  0  0  0
   40.6130   38.9230   29.6930 C   0  0  0  0  0  0  0  0  0  0  0  0
   39.2750   34.3110   31.8330 C   0  0  0  0  0  0  0  0  0  0  0  0
   40.7130   36.4740   30.6800 C   0  0  0  0  0  0  0  0  0  0  0  0
   40.6400   40.4440   29.6180 C   0  0  0  0  0  0  0  0  0  0  0  0
   37.8150   35.7840   33.2450 C   0  0  0  0  0  0  0  0  0  0  0  0
   36.3870   35.3420   32.5480 C   0  0  0  0  0  0  0  0  0  0  0  0
   36.8490   35.0170   33.8180 C   0  0  0  0  0  0  0  0  0  0  0  0
   40.1180   36.7240   31.8510 C   0  0  0  0  0  0  0  0  0  0  0  0
   40.4980   37.7400   32.6080 N   0  0  0  0  0  0  0  0  0  0  0  0
   41.6430   39.6870   28.8780 C   0  0  0  0  0  0  0  0  0  0  0  0
   39.5400   38.7540   30.7090 C   0  0  0  0  0  0  0  0  0  0  0  0
   41.3030   36.5310   29.3590 C   0  0  0  0  0  0  0  0  0  0  0  0
   35.8640   36.0820   31.7320 O   0  0  0  0  0  0  0  0  0  0  0  0
   39.0000   35.6900   32.4200 C   0  0  0  0  0  0  0  0  0  0  0  0
  1 10  1  0
  2 12  1  0
  5  2  1  0
  6 15  1  0
  6  8  1  0
  7 14  1  0
  7  6  1  0
  7  8  1  0
  9  4  1  0
  9 15  1  0
  9 10  1  0
 11  5  1  0
 11  2  1  0
 12  1  1  0
 13  4  1  0
 15  3  1  0
M  END
$$$$
