
     RDKit          3D

 11 11  0  0  0  0  0  0  0  0999 V2000
   34.5740   34.7730   33.4330 C   0  0  0  0  0  0  0  0  0  0  0  0
   36.4690   35.5580   32.2710 C   0  0  0  0  0  0  0  0  0  0  0  0
   35.7110   34.5220   32.7910 N   0  0  0  0  0  0  0  0  0  0  0  0
   33.8970   36.0240   33.2270 C   0  0  0  0  0  0  0  0  0  0  0  0
   38.0020   37.2220   30.6550 O   0  0  0  0  0  0  0  0  0  0  0  0
   38.4070   39.5970   32.6960 N   0  0  0  0  0  0  0  0  0  0  0  0
   36.1120   36.8360   32.6020 C   0  0  0  0  0  0  0  0  0  0  0  0
   37.1650   37.7700   33.0640 C   0  0  0  0  0  0  0  0  0  0  0  0
   37.8070   38.4450   31.7190 S   0  0  0  0  0  0  0  0  0  0  0  0
   37.1810   39.4330   30.5770 O   0  0  0  0  0  0  0  0  0  0  0  0
   34.7120   37.0930   32.7180 C   0  0  0  0  0  0  0  0  0  0  0  0
  2  7  2  0
  2  3  1  0
  3  1  2  0
  4  1  1  0
  5  9  2  0
  7 11  1  0
  7  8  1  0
  9  6  1  0
  9  8  1  0
 10  9  2  0
 11  4  2  0
M  END
$$$$

     RDKit          3D

  7  7  0  0  0  0  0  0  0  0999 V2000
   36.0600   38.3930   32.0730 C   0  0  0  0  0  0  0  0  0  0  0  0
   34.9090   38.0150   32.4580 O   0  0  0  0  0  0  0  0  0  0  0  0
   37.0150   36.8640   32.0530 C   0  0  0  0  0  0  0  0  0  0  0  0
   38.0990   38.8720   29.5130 C   0  0  0  0  0  0  0  0  0  0  0  0
   36.5180   39.3290   31.5320 N   0  0  0  0  0  0  0  0  0  0  0  0
   38.0610   37.7080   31.3620 C   0  0  0  0  0  0  0  0  0  0  0  0
   37.5480   39.1750   30.8460 C   0  0  0  0  0  0  0  0  0  0  0  0
  1  2  2  0
  3  1  1  0
  5  1  1  0
  6  3  1  0
  7  4  1  0
  7  6  1  0
  7  5  1  0
M  END
$$$$

     RDKit          3D

 15 14  0  0  0  0  0  0  0  0999 V2000
   34.0530   36.4320   32.4210 C   0  0  0  0  0  0  0  0  0  0  0  0
   39.2620   38.5460   28.2990 O   0  0  0  0  0  0  0  0  0  0  0  0
   35.0170   37.1050   31.9090 C   0  0  0  0  0  0  0  0  0  0  0  0
   33.4360   34.4770   33.2730 N   0  0  0  0  0  0  0  0  0  0  0  0
   34.7790   38.3130   31.2400 C   0  0  0  0  0  0  0  0  0  0  0  0
   36.4350   36.9160   31.8800 C   0  0  0  0  0  0  0  0  0  0  0  0
   37.9160   37.3550   30.3130 C   0  0  0  0  0  0  0  0  0  0  0  0
   38.6930   39.3650   29.1360 C   0  0  0  0  0  0  0  0  0  0  0  0
   32.6560   33.4900   33.7220 C   0  0  0  0  0  0  0  0  0  0  0  0
   37.0450   37.6470   31.0640 C   0  0  0  0  0  0  0  0  0  0  0  0
   37.4390   39.0520   29.5130 N   0  0  0  0  0  0  0  0  0  0  0  0
   34.2810   35.5520   33.4850 C   0  0  0  0  0  0  0  0  0  0  0  0
   32.6040   36.4670   31.9950 C   0  0  0  0  0  0  0  0  0  0  0  0
   36.8450   39.0240   30.7880 C   0  0  0  0  0  0  0  0  0  0  0  0
   38.7890   40.6740   28.7840 N   0  0  0  0  0  0  0  0  0  0  0  0
  1 13  1  0
  1 12  1  0
  3  5  1  0
  3  1  1  0
  4 12  1  0
  4  9  1  0
  6  3  1  0
  7 10  2  0
  8  2  1  0
  8 11  1  0
 10  6  1  0
 11 14  1  0
 14 10  1  0
 15  8  1  0
M  END
$$$$

     RDKit          3D

 27 29  0  0  0  0  0  0  0  0999 V2000
   35.8950   35.1060   32.5980 C   0  0  0  0  0  0  0  0  0  0  0  0
   39.9970   45.5710   25.1290 O   0  0  0  0  0  0  0  0  0  0  0  0
   34.5570   34.7420   32.8180 C   0  0  0  0  0  0  0  0  0  0  0  0
   34.1630   33.4340   33.4070 C   0  0  0  0  0  0  0  0  0  0  0  0
   38.5980   39.3360   28.5150 C   0  0  0  0  0  0  0  0  0  0  0  0
   33.8150   36.7890   31.6120 C   0  0  0  0  0  0  0  0  0  0  0  0
   38.6220   43.2620   26.1600 C   0  0  0  0  0  0  0  0  0  0  0  0
   38.2290   41.9210   26.7690 C   0  0  0  0  0  0  0  0  0  0  0  0
   37.5300   36.9340   31.4440 C   0  0  0  0  0  0  0  0  0  0  0  0
   38.8650   43.3660   24.8340 C   0  0  0  0  0  0  0  0  0  0  0  0
   31.9810   32.5320   35.1940 C   0  0  0  0  0  0  0  0  0  0  0  0
   32.5190   32.0980   36.5540 C   0  0  0  0  0  0  0  0  0  0  0  0
   40.1850   46.4850   27.3890 C   0  0  0  0  0  0  0  0  0  0  0  0
   36.2280   36.2390   31.7960 C   0  0  0  0  0  0  0  0  0  0  0  0
   38.7470   43.5220   23.6160 C   0  0  0  0  0  0  0  0  0  0  0  0
   31.8790   33.8060   34.4080 C   0  0  0  0  0  0  0  0  0  0  0  0
   31.9470   31.9520   37.6590 N   0  0  0  0  0  0  0  0  0  0  0  0
   36.9710   37.2590   29.7910 S   0  0  0  0  0  0  0  0  0  0  0  0
   33.5520   35.6690   32.4700 C   0  0  0  0  0  0  0  0  0  0  0  0
   38.5360   41.7540   28.3400 C   0  0  0  0  0  0  0  0  0  0  0  0
   33.2860   33.1340   34.4480 C   0  0  0  0  0  0  0  0  0  0  0  0
   35.1600   36.8520   31.2040 C   0  0  0  0  0  0  0  0  0  0  0  0
   37.7940   40.2610   28.5760 C   0  0  0  0  0  0  0  0  0  0  0  0
   39.3370   44.0850   26.9480 C   0  0  0  0  0  0  0  0  0  0  0  0
   37.5390   38.3600   28.7800 C   0  0  0  0  0  0  0  0  0  0  0  0
   35.3340   37.4240   30.1120 C   0  0  0  0  0  0  0  0  0  0  0  0
   39.9380   45.3650   26.3460 C   0  0  0  0  0  0  0  0  0  0  0  0
  1  3  1  0
  2 27  2  0
  3  4  1  0
  5 23  1  0
  5 25  1  0
  6 19  1  0
  7 10  1  0
  7  8  1  0
  7 24  1  0
  8 20  1  0
  9 14  1  0
 11 12  1  0
 12 17  2  0
 14  1  2  0
 15 10  3  0
 16 21  1  0
 16 11  1  0
 18 25  1  0
 18 26  1  0
 18  9  1  0
 19  3  1  0
 20 23  1  0
 21  4  1  0
 21 11  1  0
 22 26  1  0
 22  6  1  0
 22 14  1  0
 27 24  1  0
 27 13  1  0
M  END
$$$$

     RDKit          3D

 20 20  0  0  0  0  0  0  0  0999 V2000
   38.4130   35.0610   33.6240 C   0  0  0  0  0  0  0  0  0  0  0  0
   34.0030   34.5300   32.8490 C   0  0  0  0  0  0  0  0  0  0  0  0
   34.9880   35.6210   32.8180 C   0  0  0  0  0  0  0  0  0  0  0  0
   36.4010   34.8740   34.4790 O   0  0  0  0  0  0  0  0  0  0  0  0
   37.0010   36.8010   32.7580 C   0  0  0  0  0  0  0  0  0  0  0  0
   38.1670   40.6180   31.5130 C   0  0  0  0  0  0  0  0  0  0  0  0
   37.7440   39.9430   29.1600 C   0  0  0  0  0  0  0  0  0  0  0  0
   38.0310   33.6990   35.7940 C   0  0  0  0  0  0  0  0  0  0  0  0
   32.0230   35.8000   32.1710 O   0  0  0  0  0  0  0  0  0  0  0  0
   38.1060   36.4160   33.4540 O   0  0  0  0  0  0  0  0  0  0  0  0
   35.8120   36.3720   32.3960 N   0  0  0  0  0  0  0  0  0  0  0  0
   37.6560   34.7820   34.8380 C   0  0  0  0  0  0  0  0  0  0  0  0
   38.6090   41.2640   33.9790 O   0  0  0  0  0  0  0  0  0  0  0  0
   37.9020   39.6640   30.6360 C   0  0  0  0  0  0  0  0  0  0  0  0
   38.2630   40.3550   32.9340 C   0  0  0  0  0  0  0  0  0  0  0  0
   37.9480   39.0600   33.3580 C   0  0  0  0  0  0  0  0  0  0  0  0
   33.3890   34.2470   34.2220 C   0  0  0  0  0  0  0  0  0  0  0  0
   37.5370   38.1820   32.4060 C   0  0  0  0  0  0  0  0  0  0  0  0
   37.6690   38.4320   31.0530 C   0  0  0  0  0  0  0  0  0  0  0  0
   32.9680   34.8020   31.7790 C   0  0  0  0  0  0  0  0  0  0  0  0
  1 12  1  0
  2 17  1  0
  3  2  1  0
  4 12  1  0
  5 11  1  0
  5 10  1  0
  6 15  1  0
  7 14  1  0
 10  1  1  0
 11  3  1  0
 12  8  1  0
 14 19  1  0
 14  6  2  0
 15 16  2  0
 15 13  1  0
 18  5  1  0
 18 16  1  0
 19 18  2  0
 20  9  1  0
 20  2  1  0
M  END
$$$$

     RDKit          3D

 17 18  0  0  0  0  0  0  0  0999 V2000
   37.5790   38.1440   30.6930 C   0  0  0  0  0  0  0  0  0  0  0  0
   37.6010   36.8510   31.3500 C   0  0  0  0  0  0  0  0  0  0  0  0
   36.2800   40.2280   30.4470 C   0  0  0  0  0  0  0  0  0  0  0  0
   37.7860   38.2380   29.1950 C   0  0  0  0  0  0  0  0  0  0  0  0
   37.6970   39.4750   28.5320 C   0  0  0  0  0  0  0  0  0  0  0  0
   38.0010   35.4210   32.4800 N   0  0  0  0  0  0  0  0  0  0  0  0
   36.6090   33.9460   32.5250 C   0  0  0  0  0  0  0  0  0  0  0  0
   37.2210   35.7430   31.6140 C   0  0  0  0  0  0  0  0  0  0  0  0
   36.5660   39.0690   31.1840 C   0  0  0  0  0  0  0  0  0  0  0  0
   37.1340   41.9330   28.7750 C   0  0  0  0  0  0  0  0  0  0  0  0
   38.4740   39.8000   27.2880 C   0  0  0  0  0  0  0  0  0  0  0  0
   38.0080   40.3470   26.3300 O   0  0  0  0  0  0  0  0  0  0  0  0
   37.7030   34.4300   33.1180 C   0  0  0  0  0  0  0  0  0  0  0  0
   35.6720   42.0100   27.9660 C   0  0  0  0  0  0  0  0  0  0  0  0
   36.9170   40.4540   29.1870 C   0  0  0  0  0  0  0  0  0  0  0  0
   36.3470   34.7530   31.4790 C   0  0  0  0  0  0  0  0  0  0  0  0
   39.7450   39.6570   27.2070 N   0  0  0  0  0  0  0  0  0  0  0  0
  1  9  1  0
  1  2  2  0
  2  8  2  0
  3  9  2  0
  4  1  1  0
  5 15  2  0
  5  4  1  0
  6 13  2  0
  7 13  1  0
  8  6  1  0
 10 15  1  0
 11  5  1  0
 12 11  2  0
 14 10  1  0
 15  3  1  0
 16  8  1  0
 16  7  2  0
 17 11  1  0
M  END
$$$$

     RDKit          3D

 12 12  0  0  0  0  0  0  0  0999 V2000
   37.0700   39.2100   30.5630 C   0  0  0  0  0  0  0  0  0  0  0  0
   37.1920   37.7930   30.0180 N   0  0  0  0  0  0  0  0  0  0  0  0
   34.9620   38.1710   30.2900 C   0  0  0  0  0  0  0  0  0  0  0  0
   35.8920   37.1510   30.1500 C   0  0  0  0  0  0  0  0  0  0  0  0
   37.1150   41.0650   29.0510 O   0  0  0  0  0  0  0  0  0  0  0  0
   37.8360   40.2040   29.6920 C   0  0  0  0  0  0  0  0  0  0  0  0
   39.2870   40.1050   29.3560 C   0  0  0  0  0  0  0  0  0  0  0  0
   38.3580   37.1810   29.3330 C   0  0  0  0  0  0  0  0  0  0  0  0
   35.5230   39.4010   30.6100 C   0  0  0  0  0  0  0  0  0  0  0  0
   38.6870   42.0940   26.7420 C   0  0  0  0  0  0  0  0  0  0  0  0
   39.8450   41.1220   27.0430 C   0  0  0  0  0  0  0  0  0  0  0  0
   39.5830   39.8930   27.8670 C   0  0  0  0  0  0  0  0  0  0  0  0
  1  6  1  0
  1  9  1  0
  2  4  1  0
  2  1  1  0
  3  9  1  0
  4  3  1  0
  6  5  1  0
  7  6  1  0
  8  2  1  0
 10 11  1  0
 11 12  1  0
 12  7  1  0
M  END
$$$$

     RDKit          3D

 23 24  0  0  0  0  0  0  0  0999 V2000
   34.4860   34.2960   32.9830 C   0  0  0  0  0  0  0  0  0  0  0  0
   36.5430   43.2000   28.4250 C   0  0  0  0  0  0  0  0  0  0  0  0
   36.3800   41.2260   29.8300 O   0  0  0  0  0  0  0  0  0  0  0  0
   36.5300   41.0630   27.3740 N   0  0  0  0  0  0  0  0  0  0  0  0
   34.6400   41.3930   22.7050 C   0  0  0  0  0  0  0  0  0  0  0  0
   36.6890   43.8020   27.1720 C   0  0  0  0  0  0  0  0  0  0  0  0
   35.7820   32.5240   33.5520 O   0  0  0  0  0  0  0  0  0  0  0  0
   36.2560   40.7900   24.8420 C   0  0  0  0  0  0  0  0  0  0  0  0
   37.1240   37.5970   31.2820 C   0  0  0  0  0  0  0  0  0  0  0  0
   36.5980   43.0190   26.0050 C   0  0  0  0  0  0  0  0  0  0  0  0
   37.2130   35.6900   32.7990 C   0  0  0  0  0  0  0  0  0  0  0  0
   36.5120   41.6490   26.1490 C   0  0  0  0  0  0  0  0  0  0  0  0
   35.8820   41.2800   23.4040 C   0  0  0  0  0  0  0  0  0  0  0  0
   36.4520   41.8120   28.5120 C   0  0  0  0  0  0  0  0  0  0  0  0
   37.3350   39.8490   31.5570 C   0  0  0  0  0  0  0  0  0  0  0  0
   36.9370   34.4920   33.3120 N   0  0  0  0  0  0  0  0  0  0  0  0
   34.1530   35.4420   32.2340 C   0  0  0  0  0  0  0  0  0  0  0  0
   37.3750   40.7350   30.4790 C   0  0  0  0  0  0  0  0  0  0  0  0
   36.4240   38.8010   31.3250 O   0  0  0  0  0  0  0  0  0  0  0  0
   33.6430   42.0470   22.3330 N   0  0  0  0  0  0  0  0  0  0  0  0
   36.3820   36.4840   31.9500 C   0  0  0  0  0  0  0  0  0  0  0  0
   35.0140   36.4600   31.7890 C   0  0  0  0  0  0  0  0  0  0  0  0
   35.7740   33.7300   33.2730 C   0  0  0  0  0  0  0  0  0  0  0  0
  1 23  1  0
  2 14  1  0
  3 18  1  0
  4 14  2  0
  5 13  1  0
  6  2  2  0
  8 12  1  0
  9 19  1  0
  9 21  1  0
 10 12  2  0
 10  6  1  0
 11 16  2  0
 12  4  1  0
 13  8  1  0
 14  3  1  0
 17  1  2  0
 18 15  1  0
 19 15  1  0
 20  5  2  0
 21 11  1  0
 22 21  2  0
 22 17  1  0
 23 16  1  0
 23  7  2  0
M  END
$$$$

     RDKit          3D

 21 22  0  0  0  0  0  0  0  0999 V2000
   31.3370   35.0840   35.8930 C   0  0  0  0  0  0  0  0  0  0  0  0
   36.3310   36.8550   32.2320 N   0  0  0  0  0  0  0  0  0  0  0  0
   34.4970   34.6800   32.2830 C   0  0  0  0  0  0  0  0  0  0  0  0
   38.0710   40.6980   28.6470 C   0  0  0  0  0  0  0  0  0  0  0  0
   38.3940   39.6910   29.5960 C   0  0  0  0  0  0  0  0  0  0  0  0
   37.1310   39.1210   30.1150 N   0  0  0  0  0  0  0  0  0  0  0  0
   37.1720   33.2520   32.9280 C   0  0  0  0  0  0  0  0  0  0  0  0
   30.9860   37.2660   35.1190 C   0  0  0  0  0  0  0  0  0  0  0  0
   30.8750   36.4360   36.1750 C   0  0  0  0  0  0  0  0  0  0  0  0
   38.2540   35.8070   33.0220 C   0  0  0  0  0  0  0  0  0  0  0  0
   38.4170   37.1460   32.5340 N   0  0  0  0  0  0  0  0  0  0  0  0
   33.7260   35.6270   32.9160 C   0  0  0  0  0  0  0  0  0  0  0  0
   36.7810   35.6280   32.7810 C   0  0  0  0  0  0  0  0  0  0  0  0
   36.0220   34.3380   32.4400 C   0  0  0  0  0  0  0  0  0  0  0  0
   37.3940   37.3560   31.8110 C   0  0  0  0  0  0  0  0  0  0  0  0
   37.7710   32.8370   33.7260 C   0  0  0  0  0  0  0  0  0  0  0  0
   32.4590   35.7700   33.8440 C   0  0  0  0  0  0  0  0  0  0  0  0
   39.1680   40.0000   30.6780 N   0  0  0  0  0  0  0  0  0  0  0  0
   32.0770   34.7650   34.7400 C   0  0  0  0  0  0  0  0  0  0  0  0
   31.8200   36.9770   33.9530 C   0  0  0  0  0  0  0  0  0  0  0  0
   37.5020   37.9940   30.7470 N   0  0  0  0  0  0  0  0  0  0  0  0
  1  9  1  0
  2 13  1  0
  3 12  1  0
  5  4  1  0
  5  6  1  0
  5 18  1  0
  6 21  1  0
  7 16  2  0
  8  9  2  0
 11 10  1  0
 12 17  1  0
 13 14  1  0
 13 10  1  0
 14  3  1  0
 14  7  1  0
 15  2  2  0
 15 11  2  0
 17 20  2  0
 17 19  1  0
 19  1  2  0
 20  8  1  0
 21 15  1  0
M  END
$$$$

     RDKit          3D

 16 17  0  0  0  0  0  0  0  0999 V2000
   34.7610   34.8240   33.3560 N   0  0  0  0  0  0  0  0  0  0  0  0
   35.9260   38.9810   30.1650 C   0  0  0  0  0  0  0  0  0  0  0  0
   37.6710   37.1540   30.5960 N   0  0  0  0  0  0  0  0  0  0  0  0
   35.2440   35.9720   32.8130 C   0  0  0  0  0  0  0  0  0  0  0  0
   35.5080   41.4410   28.3040 C   0  0  0  0  0  0  0  0  0  0  0  0
   36.5610   40.8180   28.9730 N   0  0  0  0  0  0  0  0  0  0  0  0
   37.7770   40.2310   28.3480 C   0  0  0  0  0  0  0  0  0  0  0  0
   36.2720   35.5970   31.9440 C   0  0  0  0  0  0  0  0  0  0  0  0
   35.1260   38.5360   31.2710 O   0  0  0  0  0  0  0  0  0  0  0  0
   35.4990   33.7760   32.9500 N   0  0  0  0  0  0  0  0  0  0  0  0
   37.8030   38.7120   28.6170 C   0  0  0  0  0  0  0  0  0  0  0  0
   37.2710   38.4160   29.9830 N   0  0  0  0  0  0  0  0  0  0  0  0
   36.3300   34.2650   32.0600 C   0  0  0  0  0  0  0  0  0  0  0  0
   36.3700   40.4720   30.3890 C   0  0  0  0  0  0  0  0  0  0  0  0
   33.7060   34.6570   34.3740 C   0  0  0  0  0  0  0  0  0  0  0  0
   37.0090   36.3090   31.0350 C   0  0  0  0  0  0  0  0  0  0  0  0
  1 15  1  0
  2 14  1  0
  2  9  1  0
  3 16  1  0
  4  1  1  0
  5  6  1  0
  6 14  1  0
  7 11  1  0
  7  6  1  0
  8 13  1  0
  8  4  2  0
 10  1  1  0
 11 12  1  0
 12  2  1  0
 12  3  1  0
 13 10  2  0
 16  8  1  0
M  END
$$$$

     RDKit          3D

 18 17  0  0  0  0  0  0  0  0999 V2000
   35.4910   35.3970   31.1760 C   0  0  0  0  0  0  0  0  0  0  0  0
   34.7180   34.2570   33.2340 C   0  0  0  0  0  0  0  0  0  0  0  0
   35.0900   32.8180   33.5700 C   0  0  0  0  0  0  0  0  0  0  0  0
   39.3650   44.3990   29.2840 O   0  0  0  0  0  0  0  0  0  0  0  0
   35.9990   34.5710   32.3500 C   0  0  0  0  0  0  0  0  0  0  0  0
   36.0950   30.5070   33.9200 C   0  0  0  0  0  0  0  0  0  0  0  0
   35.3180   36.8140   31.7200 C   0  0  0  0  0  0  0  0  0  0  0  0
   35.3610   31.7230   34.2850 C   0  0  0  0  0  0  0  0  0  0  0  0
   37.9300   39.1930   29.4480 N   0  0  0  0  0  0  0  0  0  0  0  0
   36.4770   37.5630   31.1870 C   0  0  0  0  0  0  0  0  0  0  0  0
   37.1700   41.0950   30.9410 C   0  0  0  0  0  0  0  0  0  0  0  0
   34.9810   31.5410   35.6820 C   0  0  0  0  0  0  0  0  0  0  0  0
   36.5890   38.8380   31.5510 C   0  0  0  0  0  0  0  0  0  0  0  0
   38.9970   43.6100   30.2020 C   0  0  0  0  0  0  0  0  0  0  0  0
   37.3670   41.8890   29.6830 C   0  0  0  0  0  0  0  0  0  0  0  0
   37.2500   39.6370   30.5960 C   0  0  0  0  0  0  0  0  0  0  0  0
   38.7800   43.8090   31.3940 O   0  0  0  0  0  0  0  0  0  0  0  0
   38.8440   42.1760   29.5530 C   0  0  0  0  0  0  0  0  0  0  0  0
  1  7  1  0
  1  5  1  0
  2  3  1  0
  3  8  1  0
  4 14  2  0
  5  2  1  0
  6  8  1  0
  8 12  1  0
 10 13  1  0
 10  7  1  0
 14 17  1  0
 15 11  1  0
 16  9  1  0
 16 11  1  0
 16 13  1  0
 18 15  1  0
 18 14  1  0
M  END
$$$$

     RDKit          3D

 17 19  0  0  0  0  0  0  0  0999 V2000
   39.8120   43.0560   28.6500 Cl  0  0  0  0  0  0  0  0  0  0  0  0
   37.9140   39.6300   29.5340 C   0  0  0  0  0  0  0  0  0  0  0  0
   33.4590   36.6060   31.9350 C   0  0  0  0  0  0  0  0  0  0  0  0
   36.8470   37.4450   30.2270 C   0  0  0  0  0  0  0  0  0  0  0  0
   38.0440   38.1310   29.5710 C   0  0  0  0  0  0  0  0  0  0  0  0
   32.1730   36.2050   32.0690 C   0  0  0  0  0  0  0  0  0  0  0  0
   33.9460   37.6000   31.0140 C   0  0  0  0  0  0  0  0  0  0  0  0
   36.6680   41.5160   30.6430 C   0  0  0  0  0  0  0  0  0  0  0  0
   31.5850   37.8350   30.4430 C   0  0  0  0  0  0  0  0  0  0  0  0
   37.8390   42.4020   30.3440 C   0  0  0  0  0  0  0  0  0  0  0  0
   32.9430   38.0660   30.2930 C   0  0  0  0  0  0  0  0  0  0  0  0
   36.6320   40.2900   29.7410 C   0  0  0  0  0  0  0  0  0  0  0  0
   35.6540   39.3390   30.2970 C   0  0  0  0  0  0  0  0  0  0  0  0
   35.4880   38.1850   30.4390 C   0  0  0  0  0  0  0  0  0  0  0  0
   31.1940   36.8660   31.3320 C   0  0  0  0  0  0  0  0  0  0  0  0
   38.7720   41.9220   29.2850 C   0  0  0  0  0  0  0  0  0  0  0  0
   39.0450   40.4660   29.1660 C   0  0  0  0  0  0  0  0  0  0  0  0
  2 17  1  0
  2  5  1  0
  2 12  1  0
  3  6  1  0
  4 14  2  0
  5  4  1  0
  7  3  2  0
  9 15  1  0
 10  8  1  0
 11  9  2  0
 11  7  1  0
 12 13  1  0
 12  8  1  0
 13 14  1  0
 14  7  1  0
 15  6  2  0
 16  1  1  0
 16 10  1  0
 17 16  1  0
M  END
$$$$

     RDKit          3D

 28 32  0  0  0  0  0  0  0  0999 V2000
   31.1650   32.8520   35.2910 C   0  0  0  0  0  0  0  0  0  0  0  0
   34.5180   35.2240   32.4200 C   0  0  0  0  0  0  0  0  0  0  0  0
   37.6600   36.2240   33.6920 O   0  0  0  0  0  0  0  0  0  0  0  0
   30.3940   33.2650   36.5400 C   0  0  0  0  0  0  0  0  0  0  0  0
   40.2300   42.3580   30.7930 N   0  0  0  0  0  0  0  0  0  0  0  0
   31.3440   33.8110   34.1300 C   0  0  0  0  0  0  0  0  0  0  0  0
   36.6490   36.2290   32.7120 C   0  0  0  0  0  0  0  0  0  0  0  0
   31.6200   34.7780   32.0310 C   0  0  0  0  0  0  0  0  0  0  0  0
   33.5380   34.7980   33.5590 C   0  0  0  0  0  0  0  0  0  0  0  0
   38.0410   38.9160   32.4260 C   0  0  0  0  0  0  0  0  0  0  0  0
   40.5150   41.1270   29.0740 C   0  0  0  0  0  0  0  0  0  0  0  0
   40.0530   40.1610   28.0390 C   0  0  0  0  0  0  0  0  0  0  0  0
   35.2560   36.0840   33.2420 C   0  0  0  0  0  0  0  0  0  0  0  0
   39.1000   40.0160   30.6380 C   0  0  0  0  0  0  0  0  0  0  0  0
   37.4800   38.0310   31.4980 C   0  0  0  0  0  0  0  0  0  0  0  0
   30.4310   35.5390   32.7080 C   0  0  0  0  0  0  0  0  0  0  0  0
   39.8810   41.1550   30.2840 C   0  0  0  0  0  0  0  0  0  0  0  0
   36.4900   37.3780   31.9430 N   0  0  0  0  0  0  0  0  0  0  0  0
   38.5710   39.0500   29.7420 C   0  0  0  0  0  0  0  0  0  0  0  0
   41.1730   42.2870   28.7660 C   0  0  0  0  0  0  0  0  0  0  0  0
   30.0250   34.5450   33.7640 C   0  0  0  0  0  0  0  0  0  0  0  0
   32.3240   34.3620   33.1620 C   0  0  0  0  0  0  0  0  0  0  0  0
   38.9230   39.7350   31.8320 C   0  0  0  0  0  0  0  0  0  0  0  0
   31.0030   32.3620   33.9780 C   0  0  0  0  0  0  0  0  0  0  0  0
   38.8900   39.3300   28.3030 C   0  0  0  0  0  0  0  0  0  0  0  0
   37.9200   38.0130   30.2050 N   0  0  0  0  0  0  0  0  0  0  0  0
   41.1360   43.0550   29.7270 N   0  0  0  0  0  0  0  0  0  0  0  0
   32.1250   32.0020   35.7510 O   0  0  0  0  0  0  0  0  0  0  0  0
  1 28  1  0
  1  4  1  0
  2 13  1  0
  2  9  1  0
  6 21  1  0
  6  1  1  0
  7 13  1  0
  7  3  1  0
  8 16  1  0
  8 22  1  0
 11 17  1  0
 12 25  1  0
 12 11  1  0
 14 23  1  0
 15 18  1  0
 15 10  1  0
 16 21  1  0
 17 14  2  0
 17  5  1  0
 18  7  1  0
 19 26  1  0
 19 14  1  0
 20 11  2  0
 20 27  1  0
 22  9  1  0
 22  6  1  0
 23 10  1  0
 24  6  1  0
 24  1  1  0
 25 19  2  0
 26 15  2  0
 27  5  2  0
M  END
$$$$

     RDKit          3D

 24 25  0  0  0  0  0  0  0  0999 V2000
   33.6020   36.6250   31.8920 C   0  0  0  0  0  0  0  0  0  0  0  0
   36.0830   39.1640   29.5710 C   0  0  0  0  0  0  0  0  0  0  0  0
   32.1760   36.1730   31.9890 C   0  0  0  0  0  0  0  0  0  0  0  0
   38.1670   39.6860   30.4560 C   0  0  0  0  0  0  0  0  0  0  0  0
   34.7060   33.9360   32.9870 N   0  0  0  0  0  0  0  0  0  0  0  0
   36.8220   37.8910   31.4680 C   0  0  0  0  0  0  0  0  0  0  0  0
   31.9360   35.3280   33.0230 O   0  0  0  0  0  0  0  0  0  0  0  0
   39.3440   34.3340   36.6090 N   0  0  0  0  0  0  0  0  0  0  0  0
   38.2360   32.5560   36.1050 O   0  0  0  0  0  0  0  0  0  0  0  0
   38.2390   35.5250   33.9780 C   0  0  0  0  0  0  0  0  0  0  0  0
   36.3950   33.9280   34.4690 C   0  0  0  0  0  0  0  0  0  0  0  0
   37.9460   36.6050   33.2560 C   0  0  0  0  0  0  0  0  0  0  0  0
   40.6510   33.6600   36.5610 O   0  0  0  0  0  0  0  0  0  0  0  0
   35.7110   35.7710   32.8680 C   0  0  0  0  0  0  0  0  0  0  0  0
   31.2200   33.3540   33.9200 N   0  0  0  0  0  0  0  0  0  0  0  0
   38.4960   33.6810   35.7540 C   0  0  0  0  0  0  0  0  0  0  0  0
   35.9230   38.0730   30.4500 C   0  0  0  0  0  0  0  0  0  0  0  0
   37.2020   39.8790   29.5230 N   0  0  0  0  0  0  0  0  0  0  0  0
   31.7390   34.6820   34.0730 C   0  0  0  0  0  0  0  0  0  0  0  0
   34.5270   35.6840   32.4520 N   0  0  0  0  0  0  0  0  0  0  0  0
   37.7980   34.3770   34.7190 C   0  0  0  0  0  0  0  0  0  0  0  0
   37.9050   38.8120   31.5210 C   0  0  0  0  0  0  0  0  0  0  0  0
   36.6980   36.8290   32.5360 N   0  0  0  0  0  0  0  0  0  0  0  0
   35.7150   34.6760   33.3700 C   0  0  0  0  0  0  0  0  0  0  0  0
  1  3  1  0
  1 20  1  0
  2 17  1  0
  3  7  1  0
  4 22  2  0
  5 24  2  0
  6 22  1  0
  6 23  1  0
  7 19  1  0
 10 21  1  0
 11 21  1  0
 12 10  1  0
 13  8  1  0
 14 20  1  0
 14 24  1  0
 15 19  1  0
 16  9  2  0
 16  8  1  0
 17  6  2  0
 18  2  2  0
 18  4  1  0
 21 16  1  0
 23 14  1  0
 23 12  1  0
 24 11  1  0
M  END
$$$$

     RDKit          3D

 10 10  0  0  0  0  0  0  0  0999 V2000
   35.5630   35.9910   31.1660 C   0  0  0  0  0  0  0  0  0  0  0  0
   34.4900   36.7020   31.3890 C   0  0  0  0  0  0  0  0  0  0  0  0
   34.6490   38.0600   31.2010 C   0  0  0  0  0  0  0  0  0  0  0  0
   36.8780   36.4820   31.1030 C   0  0  0  0  0  0  0  0  0  0  0  0
   38.8790   40.0620   28.6440 N   0  0  0  0  0  0  0  0  0  0  0  0
   37.0410   40.6160   30.4000 C   0  0  0  0  0  0  0  0  0  0  0  0
   35.8600   39.8050   30.3620 O   0  0  0  0  0  0  0  0  0  0  0  0
   37.0350   37.8340   30.9850 C   0  0  0  0  0  0  0  0  0  0  0  0
   38.2990   40.3030   29.6290 C   0  0  0  0  0  0  0  0  0  0  0  0
   35.8790   38.5890   30.8840 C   0  0  0  0  0  0  0  0  0  0  0  0
  1  2  1  0
  3  2  2  0
  4  1  2  0
  5  9  2  0
  7  6  1  0
  7 10  1  0
  8  4  1  0
  9  6  1  0
 10  8  2  0
 10  3  1  0
M  END
$$$$

     RDKit          3D

  7  7  0  0  0  0  0  0  0  0999 V2000
   39.3770   38.4890   29.2450 C   0  0  0  0  0  0  0  0  0  0  0  0
   39.8230   40.9990   28.5590 C   0  0  0  0  0  0  0  0  0  0  0  0
   39.0690   41.0950   29.6840 C   0  0  0  0  0  0  0  0  0  0  0  0
   39.5040   37.0650   29.1800 O   0  0  0  0  0  0  0  0  0  0  0  0
   39.9440   39.4670   28.2290 C   0  0  0  0  0  0  0  0  0  0  0  0
   38.4240   39.0620   30.1300 C   0  0  0  0  0  0  0  0  0  0  0  0
   37.8800   40.2350   29.4110 N   0  0  0  0  0  0  0  0  0  0  0  0
  1  4  1  0
  1  6  1  0
  2  3  1  0
  5  2  1  0
  5  1  1  0
  7  3  1  0
  7  6  1  0
M  END
$$$$

     RDKit          3D

 17 17  0  0  0  0  0  0  0  0999 V2000
   35.6030   33.1120   34.6540 C   0  0  0  0  0  0  0  0  0  0  0  0
   36.7660   33.7860   33.9280 C   0  0  0  0  0  0  0  0  0  0  0  0
   37.9730   35.2850   32.1810 C   0  0  0  0  0  0  0  0  0  0  0  0
   37.4390   38.5490   31.2620 C   0  0  0  0  0  0  0  0  0  0  0  0
   37.5510   39.4300   30.2730 O   0  0  0  0  0  0  0  0  0  0  0  0
   34.4130   35.0420   32.9560 N   0  0  0  0  0  0  0  0  0  0  0  0
   35.6780   35.5550   32.6420 C   0  0  0  0  0  0  0  0  0  0  0  0
   37.8330   40.9320   30.5290 C   0  0  0  0  0  0  0  0  0  0  0  0
   35.8260   36.8760   32.0450 C   0  0  0  0  0  0  0  0  0  0  0  0
   37.5650   31.3210   36.2350 N   0  0  0  0  0  0  0  0  0  0  0  0
   37.8580   36.3560   31.2030 O   0  0  0  0  0  0  0  0  0  0  0  0
   37.0180   37.3010   31.5220 C   0  0  0  0  0  0  0  0  0  0  0  0
   36.8780   34.8670   32.8920 C   0  0  0  0  0  0  0  0  0  0  0  0
   33.3770   35.6790   33.7180 C   0  0  0  0  0  0  0  0  0  0  0  0
   37.8440   32.7350   34.1050 C   0  0  0  0  0  0  0  0  0  0  0  0
   34.7540   37.5740   31.9100 O   0  0  0  0  0  0  0  0  0  0  0  0
   38.1510   32.7510   35.6210 C   0  0  0  0  0  0  0  0  0  0  0  0
  2 15  1  0
  2  1  1  0
  3 13  2  0
  5  8  1  0
  5  4  1  0
  6 14  1  0
  7 13  1  0
  7  6  1  0
  9  7  2  0
 11 12  1  0
 11  3  1  0
 12  4  1  0
 12  9  1  0
 13  2  1  0
 15 17  1  0
 16  9  1  0
 17 10  1  0
M  END
$$$$

     RDKit          3D

 23 23  0  0  0  0  0  0  0  0999 V2000
   36.3800   44.1780   23.3990 C   0  0  0  0  0  0  0  0  0  0  0  0
   36.5500   41.8480   26.4990 C   0  0  0  0  0  0  0  0  0  0  0  0
   37.8910   38.5390   30.4610 C   0  0  0  0  0  0  0  0  0  0  0  0
   37.1610   37.5560   30.8790 O   0  0  0  0  0  0  0  0  0  0  0  0
   36.7540   41.2910   24.3520 O   0  0  0  0  0  0  0  0  0  0  0  0
   33.9210   36.0480   32.7080 N   0  0  0  0  0  0  0  0  0  0  0  0
   35.8150   32.0670   34.6040 O   0  0  0  0  0  0  0  0  0  0  0  0
   39.8490   38.6600   28.9870 O   0  0  0  0  0  0  0  0  0  0  0  0
   36.1870   35.8140   32.4020 C   0  0  0  0  0  0  0  0  0  0  0  0
   36.7130   42.5220   25.1410 C   0  0  0  0  0  0  0  0  0  0  0  0
   40.1580   40.0990   27.3920 O   0  0  0  0  0  0  0  0  0  0  0  0
   36.5580   36.2620   30.9850 C   0  0  0  0  0  0  0  0  0  0  0  0
   34.8090   42.3720   23.7860 C   0  0  0  0  0  0  0  0  0  0  0  0
   38.0150   41.7490   26.9400 C   0  0  0  0  0  0  0  0  0  0  0  0
   37.4640   39.1210   29.2420 O   0  0  0  0  0  0  0  0  0  0  0  0
   38.0830   41.0190   28.1090 O   0  0  0  0  0  0  0  0  0  0  0  0
   37.2080   33.2830   33.7090 O   0  0  0  0  0  0  0  0  0  0  0  0
   36.2080   42.5870   24.1430 N   0  0  0  0  0  0  0  0  0  0  0  0
   34.9830   33.8930   33.2850 C   0  0  0  0  0  0  0  0  0  0  0  0
   38.8340   39.6080   28.2940 P   0  0  0  0  0  0  0  0  0  0  0  0
   34.9230   35.2570   32.7440 C   0  0  0  0  0  0  0  0  0  0  0  0
   36.9630   35.9000   33.3470 O   0  0  0  0  0  0  0  0  0  0  0  0
   35.9630   33.1460   34.0650 C   0  0  0  0  0  0  0  0  0  0  0  0
  1 18  1  0
  2 14  1  0
  3  4  1  0
  4 12  1  0
  5 10  1  0
  6 21  2  0
  9 21  1  0
  9 22  2  0
 10  2  1  0
 12  9  1  0
 13 18  1  0
 14 16  1  0
 15  3  1  0
 16 20  1  0
 17 23  2  0
 18  5  1  0
 18 10  1  0
 19 23  1  0
 20 11  2  0
 20  8  1  0
 20 15  1  0
 21 19  1  0
 23  7  1  0
M  END
$$$$

     RDKit          3D

 10  9  0  0  0  0  0  0  0  0999 V2000
   38.9070   38.4640   29.3400 F   0  0  0  0  0  0  0  0  0  0  0  0
   38.0850   42.4980   28.8640 C   0  0  0  0  0  0  0  0  0  0  0  0
   37.1720   40.0370   29.8020 F   0  0  0  0  0  0  0  0  0  0  0  0
   39.2910   40.4110   29.0380 C   0  0  0  0  0  0  0  0  0  0  0  0
   38.2140   39.5800   29.0290 C   0  0  0  0  0  0  0  0  0  0  0  0
   37.5230   39.1250   27.9160 F   0  0  0  0  0  0  0  0  0  0  0  0
   38.7630   42.1040   27.8130 C   0  0  0  0  0  0  0  0  0  0  0  0
   38.1880   42.3690   30.2570 N   0  0  0  0  0  0  0  0  0  0  0  0
   36.8230   42.4650   28.2240 O   0  0  0  0  0  0  0  0  0  0  0  0
   39.5320   41.1040   27.5040 C   0  0  0  0  0  0  0  0  0  0  0  0
  2  8  1  0
  5  4  1  0
  5  1  1  0
  5  3  1  0
  6  5  1  0
  7  2  1  0
  9  2  2  0
 10  7  1  0
 10  4  1  0
M  END
$$$$

     RDKit          3D

 11 10  0  0  0  0  0  0  0  0999 V2000
   34.1620   35.7860   32.1590 N   0  0  0  0  0  0  0  0  0  0  0  0
   37.9730   39.7930   30.4440 C   0  0  0  0  0  0  0  0  0  0  0  0
   34.6340   34.5170   31.6400 C   0  0  0  0  0  0  0  0  0  0  0  0
   36.5750   39.7080   30.8630 C   0  0  0  0  0  0  0  0  0  0  0  0
   32.8080   35.6310   32.7700 C   0  0  0  0  0  0  0  0  0  0  0  0
   36.6110   35.8180   31.9130 N   0  0  0  0  0  0  0  0  0  0  0  0
   35.7360   37.5780   31.5260 C   0  0  0  0  0  0  0  0  0  0  0  0
   34.5270   37.0560   31.9570 C   0  0  0  0  0  0  0  0  0  0  0  0
   38.0380   39.5350   28.9870 C   0  0  0  0  0  0  0  0  0  0  0  0
   36.7300   36.8110   31.6490 O   0  0  0  0  0  0  0  0  0  0  0  0
   35.8120   38.7560   31.0660 N   0  0  0  0  0  0  0  0  0  0  0  0
  1  5  1  0
  2  4  1  0
  3  1  1  0
  4 11  1  0
  7 10  1  0
  7  8  1  0
  8  1  1  0
  9  2  1  0
 10  6  1  0
 11  7  1  0
M  END
$$$$
