
     RDKit          3D

 17 18  0  0  0  0  0  0  0  0999 V2000
   35.6340   36.8850   32.6780 C   0  0  0  0  0  0  0  0  0  0  0  0
   35.5120   35.3530   32.9940 C   0  0  0  0  0  0  0  0  0  0  0  0
   33.6200   34.2390   31.7700 N   0  0  0  0  0  0  0  0  0  0  0  0
   33.1670   34.2180   30.3990 C   0  0  0  0  0  0  0  0  0  0  0  0
   37.2860   38.3600   29.5180 C   0  0  0  0  0  0  0  0  0  0  0  0
   32.1330   32.2860   30.4940 C   0  0  0  0  0  0  0  0  0  0  0  0
   31.1560   31.3620   32.3580 O   0  0  0  0  0  0  0  0  0  0  0  0
   32.2940   32.1240   32.0020 C   0  0  0  0  0  0  0  0  0  0  0  0
   33.3300   32.8280   29.9510 O   0  0  0  0  0  0  0  0  0  0  0  0
   36.5520   36.7820   30.1730 S   0  0  0  0  0  0  0  0  0  0  0  0
   38.1630   37.8470   28.3560 C   0  0  0  0  0  0  0  0  0  0  0  0
   37.5700   39.2180   28.3360 C   0  0  0  0  0  0  0  0  0  0  0  0
   34.4300   35.4690   34.0660 N   0  0  0  0  0  0  0  0  0  0  0  0
   33.0690   33.2410   32.6900 C   0  0  0  0  0  0  0  0  0  0  0  0
   35.0700   34.5430   31.8360 C   0  0  0  0  0  0  0  0  0  0  0  0
   34.2780   35.7130   35.1820 C   0  0  0  0  0  0  0  0  0  0  0  0
   36.9300   37.2120   31.9330 C   0  0  0  0  0  0  0  0  0  0  0  0
  1  2  1  0
  2 15  1  0
  2 13  1  0
  3 15  1  0
  3 14  1  0
  4  3  1  0
  5 10  1  0
  6  8  1  0
  8  7  1  0
  8 14  1  0
  9  4  1  0
  9  6  1  0
 10 17  1  0
 11  5  1  0
 12 11  1  0
 12  5  1  0
 13 16  2  0
 17  1  1  0
M  END
$$$$

     RDKit          3D

 21 21  0  0  0  0  0  0  0  0999 V2000
   35.1340   35.8040   29.1320 C   0  0  0  0  0  0  0  0  0  0  0  0
   35.8300   36.4470   26.4100 C   0  0  0  0  0  0  0  0  0  0  0  0
   37.0120   39.9900   20.9350 C   0  0  0  0  0  0  0  0  0  0  0  0
   35.1660   38.9220   26.4540 C   0  0  0  0  0  0  0  0  0  0  0  0
   35.4580   39.9910   22.9560 C   0  0  0  0  0  0  0  0  0  0  0  0
   36.8730   37.8780   22.1350 C   0  0  0  0  0  0  0  0  0  0  0  0
   37.4030   35.5880   32.1520 C   0  0  0  0  0  0  0  0  0  0  0  0
   36.1940   35.4400   27.8180 S   0  0  0  0  0  0  0  0  0  0  0  0
   35.0910   36.8840   30.5200 S   0  0  0  0  0  0  0  0  0  0  0  0
   36.6140   34.0840   27.7750 O   0  0  0  0  0  0  0  0  0  0  0  0
   37.3820   35.9620   28.2540 O   0  0  0  0  0  0  0  0  0  0  0  0
   35.6380   37.8800   24.3180 C   0  0  0  0  0  0  0  0  0  0  0  0
   34.6380   39.0080   23.8180 C   0  0  0  0  0  0  0  0  0  0  0  0
   35.8580   35.3080   30.0640 N   0  0  0  0  0  0  0  0  0  0  0  0
   35.8360   39.2890   27.4070 C   0  0  0  0  0  0  0  0  0  0  0  0
   36.6880   37.3020   23.5610 C   0  0  0  0  0  0  0  0  0  0  0  0
   35.9460   33.5190   31.9360 C   0  0  0  0  0  0  0  0  0  0  0  0
   38.6130   34.9040   32.5250 O   0  0  0  0  0  0  0  0  0  0  0  0
   35.9980   39.0910   21.7240 C   0  0  0  0  0  0  0  0  0  0  0  0
   35.4120   37.6740   25.6430 N   0  0  0  0  0  0  0  0  0  0  0  0
   36.5110   34.8270   31.3320 C   0  0  0  0  0  0  0  0  0  0  0  0
  1 14  1  0
  1  9  1  0
  2  8  1  0
  4 15  2  0
  5 13  1  0
  6 16  1  0
  7 18  1  0
  8 11  2  0
  8  1  1  0
 10  8  2  0
 12 20  1  0
 13 12  1  0
 14 21  1  0
 16 12  2  0
 19  3  1  0
 19  6  1  0
 19  5  1  0
 20  2  1  0
 20  4  1  0
 21 17  1  0
 21  7  1  0
M  END
$$$$

     RDKit          3D

 22 23  0  0  0  0  0  0  0  0999 V2000
   35.1090   34.0980   33.3420 C   0  0  0  0  0  0  0  0  0  0  0  0
   38.6970   41.5880   25.0950 C   0  0  0  0  0  0  0  0  0  0  0  0
   36.0380   41.2620   23.7150 C   0  0  0  0  0  0  0  0  0  0  0  0
   34.6400   34.9020   31.1780 C   0  0  0  0  0  0  0  0  0  0  0  0
   34.7170   35.3370   32.5800 C   0  0  0  0  0  0  0  0  0  0  0  0
   38.8660   42.5410   24.3430 O   0  0  0  0  0  0  0  0  0  0  0  0
   37.2220   36.5020   27.6760 O   0  0  0  0  0  0  0  0  0  0  0  0
   36.2900   41.2320   25.0560 N   0  0  0  0  0  0  0  0  0  0  0  0
   37.0670   37.9570   27.5770 C   0  0  0  0  0  0  0  0  0  0  0  0
   36.2220   37.4820   31.6530 C   0  0  0  0  0  0  0  0  0  0  0  0
   36.3410   39.1600   26.7880 C   0  0  0  0  0  0  0  0  0  0  0  0
   36.6190   38.2490   29.1810 C   0  0  0  0  0  0  0  0  0  0  0  0
   36.5450   39.6210   29.3900 C   0  0  0  0  0  0  0  0  0  0  0  0
   34.4190   37.1090   33.6570 O   0  0  0  0  0  0  0  0  0  0  0  0
   35.1290   35.7630   30.0630 C   0  0  0  0  0  0  0  0  0  0  0  0
   34.8580   35.2830   28.8900 O   0  0  0  0  0  0  0  0  0  0  0  0
   37.4470   41.2550   25.7960 C   0  0  0  0  0  0  0  0  0  0  0  0
   37.1470   40.5040   27.1450 N   0  0  0  0  0  0  0  0  0  0  0  0
   37.0600   40.7980   28.6810 C   0  0  0  0  0  0  0  0  0  0  0  0
   35.5070   36.7680   32.8430 C   0  0  0  0  0  0  0  0  0  0  0  0
   36.0430   37.0960   30.1420 C   0  0  0  0  0  0  0  0  0  0  0  0
   39.7730   41.0450   25.4800 O   0  0  0  0  0  0  0  0  0  0  0  0
  2 22  1  0
  2 17  1  0
  3  8  1  0
  4  5  1  0
  5 20  2  0
  5  1  1  0
  6  2  2  0
  9  7  1  0
  9 12  1  0
 10 20  1  0
 11 18  1  0
 11  9  1  0
 12 13  1  0
 12 21  1  0
 15 21  1  0
 15  4  2  0
 16 15  1  0
 17  8  1  0
 17 18  1  0
 18 19  1  0
 19 13  1  0
 20 14  1  0
 21 10  2  0
M  END
$$$$

     RDKit          3D

  8  8  0  0  0  0  0  0  0  0999 V2000
   39.1520   39.1790   23.7740 C   0  0  0  0  0  0  0  0  0  0  0  0
   37.0220   38.5680   22.8130 C   0  0  0  0  0  0  0  0  0  0  0  0
   38.2220   38.2920   23.2720 C   0  0  0  0  0  0  0  0  0  0  0  0
   35.7750   41.5970   21.6840 O   0  0  0  0  0  0  0  0  0  0  0  0
   38.8820   40.6350   23.8840 C   0  0  0  0  0  0  0  0  0  0  0  0
   36.2170   39.6190   22.5810 C   0  0  0  0  0  0  0  0  0  0  0  0
   36.7260   41.0370   22.4870 C   0  0  0  0  0  0  0  0  0  0  0  0
   38.2110   41.2760   22.7590 C   0  0  0  0  0  0  0  0  0  0  0  0
  1  5  1  0
  2  3  1  0
  3  1  2  0
  4  7  1  0
  6  2  2  0
  7  6  1  0
  7  8  2  0
  8  5  1  0
M  END
$$$$

     RDKit          3D

 10  9  0  0  0  0  0  0  0  0999 V2000
   35.2270   37.1090   23.3360 O   0  0  0  0  0  0  0  0  0  0  0  0
   38.7970   38.1820   23.9090 N   0  0  0  0  0  0  0  0  0  0  0  0
   38.4550   40.3730   22.8950 C   0  0  0  0  0  0  0  0  0  0  0  0
   36.5500   39.1020   23.9960 C   0  0  0  0  0  0  0  0  0  0  0  0
   35.7530   36.7460   20.2320 C   0  0  0  0  0  0  0  0  0  0  0  0
   35.8180   37.9110   20.6620 N   0  0  0  0  0  0  0  0  0  0  0  0
   36.0430   38.6650   21.7400 C   0  0  0  0  0  0  0  0  0  0  0  0
   36.2930   37.9730   23.0470 C   0  0  0  0  0  0  0  0  0  0  0  0
   35.7260   40.2440   23.7120 O   0  0  0  0  0  0  0  0  0  0  0  0
   38.0410   39.4270   24.0040 C   0  0  0  0  0  0  0  0  0  0  0  0
  2 10  1  0
  4  9  1  0
  4 10  1  0
  5  6  1  0
  6  7  2  3
  7  8  1  0
  8  1  1  0
  8  4  1  0
 10  3  1  0
M  END
$$$$

     RDKit          3D

 26 27  0  0  0  0  0  0  0  0999 V2000
   36.1900   36.9340   28.2070 O   0  0  0  0  0  0  0  0  0  0  0  0
   37.2950   38.1760   22.1450 C   0  0  0  0  0  0  0  0  0  0  0  0
   36.4980   40.0570   21.2190 N   0  0  0  0  0  0  0  0  0  0  0  0
   36.2600   37.2580   27.0570 C   0  0  0  0  0  0  0  0  0  0  0  0
   36.5680   36.2970   32.5080 C   0  0  0  0  0  0  0  0  0  0  0  0
   40.2100   36.1470   35.0490 C   0  0  0  0  0  0  0  0  0  0  0  0
   36.3420   38.0930   34.1170 O   0  0  0  0  0  0  0  0  0  0  0  0
   38.0120   36.5820   34.4390 N   0  0  0  0  0  0  0  0  0  0  0  0
   35.2660   38.4600   25.1820 C   0  0  0  0  0  0  0  0  0  0  0  0
   37.2820   37.3310   33.4240 C   0  0  0  0  0  0  0  0  0  0  0  0
   35.0690   38.1180   26.6330 C   0  0  0  0  0  0  0  0  0  0  0  0
   37.3360   36.8220   26.2610 C   0  0  0  0  0  0  0  0  0  0  0  0
   39.2570   37.1630   34.9150 C   0  0  0  0  0  0  0  0  0  0  0  0
   36.0240   37.5510   22.7830 C   0  0  0  0  0  0  0  0  0  0  0  0
   35.9810   41.1830   20.6710 C   0  0  0  0  0  0  0  0  0  0  0  0
   36.8570   40.5000   18.7930 C   0  0  0  0  0  0  0  0  0  0  0  0
   37.4240   40.3660   20.2020 C   0  0  0  0  0  0  0  0  0  0  0  0
   37.1860   36.8750   24.8480 C   0  0  0  0  0  0  0  0  0  0  0  0
   39.0400   37.9150   36.1730 C   0  0  0  0  0  0  0  0  0  0  0  0
   35.2800   36.1220   28.9180 C   0  0  0  0  0  0  0  0  0  0  0  0
   36.7790   36.5690   31.0430 C   0  0  0  0  0  0  0  0  0  0  0  0
   36.4780   35.7790   30.1640 C   0  0  0  0  0  0  0  0  0  0  0  0
   35.1870   35.8400   32.4910 O   0  0  0  0  0  0  0  0  0  0  0  0
   36.1070   37.6870   24.2900 C   0  0  0  0  0  0  0  0  0  0  0  0
   34.5420   37.6930   22.4010 C   0  0  0  0  0  0  0  0  0  0  0  0
   37.0870   39.6530   22.4640 C   0  0  0  0  0  0  0  0  0  0  0  0
  1 20  1  0
  2 26  1  0
  2 14  1  0
  3 26  1  0
  4  1  1  0
  5 23  1  0
  5 10  1  0
  8 13  1  0
  9 11  1  0
 10  7  1  0
 10  8  1  0
 11  4  1  0
 12  4  1  0
 13  6  1  0
 13 19  1  0
 14 25  1  0
 14 24  1  0
 15  3  1  0
 17 16  1  0
 17 15  1  0
 17  3  1  0
 18 12  1  0
 20 22  1  0
 21  5  1  0
 22 21  1  0
 24 18  2  0
 24  9  1  0
M  END
$$$$

     RDKit          3D

 11 10  0  0  0  0  0  0  0  0999 V2000
   38.1990   36.0810   27.4580 C   0  0  0  0  0  0  0  0  0  0  0  0
   36.7930   37.6140   24.7690 C   0  0  0  0  0  0  0  0  0  0  0  0
   37.7240   36.4620   26.5420 N   0  0  0  0  0  0  0  0  0  0  0  0
   35.7490   36.7050   22.6740 O   0  0  0  0  0  0  0  0  0  0  0  0
   39.1780   36.7620   28.8360 S   0  0  0  0  0  0  0  0  0  0  0  0
   36.0880   37.8800   23.3820 S   0  0  0  0  0  0  0  0  0  0  0  0
   37.6670   38.4530   22.7020 C   0  0  0  0  0  0  0  0  0  0  0  0
   36.9120   36.2590   25.4270 C   0  0  0  0  0  0  0  0  0  0  0  0
   37.5580   38.5690   25.5420 N   0  0  0  0  0  0  0  0  0  0  0  0
   37.7100   34.3040   28.0130 S   0  0  0  0  0  0  0  0  0  0  0  0
   35.2870   38.9940   23.1720 O   0  0  0  0  0  0  0  0  0  0  0  0
  1 10  2  0
  1  5  1  0
  2  8  1  0
  2  9  1  0
  3  1  1  0
  4  6  2  0
  6  2  1  0
  7  6  1  0
  8  3  1  0
 11  6  2  0
M  END
$$$$

     RDKit          3D

 11 11  0  0  0  0  0  0  0  0999 V2000
   36.6980   41.7800   27.1490 C   0  0  0  0  0  0  0  0  0  0  0  0
   37.7830   40.4780   28.8030 C   0  0  0  0  0  0  0  0  0  0  0  0
   36.2470   39.4320   30.4200 O   0  0  0  0  0  0  0  0  0  0  0  0
   36.3790   40.5260   26.3130 C   0  0  0  0  0  0  0  0  0  0  0  0
   37.9930   41.5280   27.8400 C   0  0  0  0  0  0  0  0  0  0  0  0
   37.6120   37.7920   30.3340 O   0  0  0  0  0  0  0  0  0  0  0  0
   36.7610   39.2070   26.9080 C   0  0  0  0  0  0  0  0  0  0  0  0
   37.7320   38.4570   26.1530 O   0  0  0  0  0  0  0  0  0  0  0  0
   36.2900   40.5740   24.9450 O   0  0  0  0  0  0  0  0  0  0  0  0
   37.0830   38.6090   29.7400 N   0  0  0  0  0  0  0  0  0  0  0  0
   37.3800   39.1200   28.3520 C   0  0  0  0  0  0  0  0  0  0  0  0
  1  5  1  0
  4  9  1  0
  4  7  1  0
  4  1  1  0
  5  2  1  0
  7  8  1  0
  7 11  1  0
 10  6  2  0
 10  3  2  0
 11  2  1  0
 11 10  1  0
M  END
$$$$

     RDKit          3D

  7  6  0  0  0  0  0  0  0  0999 V2000
   37.5470   38.1090   22.2080 C   0  0  0  0  0  0  0  0  0  0  0  0
   36.8290   39.1290   22.8310 C   0  0  0  0  0  0  0  0  0  0  0  0
   35.5370   42.0120   23.5430 O   0  0  0  0  0  0  0  0  0  0  0  0
   37.2890   39.4460   24.2330 O   0  0  0  0  0  0  0  0  0  0  0  0
   36.6800   40.5060   22.2010 C   0  0  0  0  0  0  0  0  0  0  0  0
   37.6000   40.7470   21.1920 O   0  0  0  0  0  0  0  0  0  0  0  0
   36.7540   41.7720   22.6650 C   0  0  0  0  0  0  0  0  0  0  0  0
  2  1  1  0
  2  4  1  0
  5  6  1  0
  5  7  1  0
  5  2  1  0
  7  3  1  0
M  END
$$$$

     RDKit          3D

 21 22  0  0  0  0  0  0  0  0999 V2000
   36.3170   36.9240   27.9040 C   0  0  0  0  0  0  0  0  0  0  0  0
   37.7050   38.3960   25.3320 C   0  0  0  0  0  0  0  0  0  0  0  0
   37.2650   38.3080   23.8690 C   0  0  0  0  0  0  0  0  0  0  0  0
   36.7760   36.6010   31.4110 N   0  0  0  0  0  0  0  0  0  0  0  0
   34.4240   36.3060   32.6130 C   0  0  0  0  0  0  0  0  0  0  0  0
   37.7390   39.6690   23.5440 C   0  0  0  0  0  0  0  0  0  0  0  0
   37.7070   39.3780   21.2870 C   0  0  0  0  0  0  0  0  0  0  0  0
   37.7740   39.8690   20.1290 O   0  0  0  0  0  0  0  0  0  0  0  0
   33.6460   35.3270   32.0440 C   0  0  0  0  0  0  0  0  0  0  0  0
   37.3330   38.0510   21.4480 C   0  0  0  0  0  0  0  0  0  0  0  0
   36.2940   38.6340   26.0480 C   0  0  0  0  0  0  0  0  0  0  0  0
   35.4510   35.2950   33.0790 O   0  0  0  0  0  0  0  0  0  0  0  0
   36.6520   38.3110   27.3870 C   0  0  0  0  0  0  0  0  0  0  0  0
   37.9190   40.1610   22.3990 C   0  0  0  0  0  0  0  0  0  0  0  0
   36.1680   34.4740   32.3250 C   0  0  0  0  0  0  0  0  0  0  0  0
   37.3670   38.2770   29.4450 C   0  0  0  0  0  0  0  0  0  0  0  0
   37.3030   37.5270   22.7560 C   0  0  0  0  0  0  0  0  0  0  0  0
   36.5590   37.1710   29.2410 C   0  0  0  0  0  0  0  0  0  0  0  0
   37.2930   35.2710   31.7090 C   0  0  0  0  0  0  0  0  0  0  0  0
   37.4400   38.9850   28.2900 C   0  0  0  0  0  0  0  0  0  0  0  0
   36.0730   36.5320   30.2360 O   0  0  0  0  0  0  0  0  0  0  0  0
  1 18  1  0
  2 11  1  0
  3  2  1  0
  4 19  1  0
  5 12  1  0
  6  3  1  0
  7 10  1  0
  7 14  1  0
  8  7  2  0
  9  5  1  0
 10 17  1  0
 13 11  1  0
 13  1  1  0
 13 20  1  0
 14  6  2  0
 15 12  1  0
 17  3  1  0
 18 16  1  0
 18 21  1  0
 19 15  1  0
 20 16  1  0
 21  4  1  0
M  END
$$$$

     RDKit          3D

  6  6  0  0  0  0  0  0  0  0999 V2000
   36.5400   37.3630   27.8790 C   0  0  0  0  0  0  0  0  0  0  0  0
   37.2520   36.9610   29.1460 C   0  0  0  0  0  0  0  0  0  0  0  0
   35.8950   36.1350   27.4510 O   0  0  0  0  0  0  0  0  0  0  0  0
   38.9840   36.5700   31.0280 O   0  0  0  0  0  0  0  0  0  0  0  0
   37.8070   36.7650   30.5160 C   0  0  0  0  0  0  0  0  0  0  0  0
   37.5720   37.9420   30.1430 O   0  0  0  0  0  0  0  0  0  0  0  0
  2  1  1  0
  2  6  1  0
  2  5  1  0
  3  1  1  0
  5  4  1  0
  6  5  1  0
M  END
$$$$

     RDKit          3D

 19 20  0  0  0  0  0  0  0  0999 V2000
   36.1050   38.1300   26.9170 C   0  0  0  0  0  0  0  0  0  0  0  0
   36.9880   39.1290   25.1460 C   0  0  0  0  0  0  0  0  0  0  0  0
   38.6040   42.7390   19.4530 O   0  0  0  0  0  0  0  0  0  0  0  0
   35.6300   36.9830   28.5570 C   0  0  0  0  0  0  0  0  0  0  0  0
   37.3480   37.7250   27.2200 C   0  0  0  0  0  0  0  0  0  0  0  0
   37.5450   43.4190   20.1200 C   0  0  0  0  0  0  0  0  0  0  0  0
   37.9780   42.2980   21.9590 C   0  0  0  0  0  0  0  0  0  0  0  0
   35.0790   37.5890   27.5620 C   0  0  0  0  0  0  0  0  0  0  0  0
   39.3150   44.3290   20.9880 O   0  0  0  0  0  0  0  0  0  0  0  0
   37.4600   42.0360   23.2820 N   0  0  0  0  0  0  0  0  0  0  0  0
   35.8980   38.9360   25.9940 N   0  0  0  0  0  0  0  0  0  0  0  0
   37.2430   44.5900   19.4730 C   0  0  0  0  0  0  0  0  0  0  0  0
   36.8410   40.4240   24.5320 C   0  0  0  0  0  0  0  0  0  0  0  0
   37.9650   43.5560   21.3490 C   0  0  0  0  0  0  0  0  0  0  0  0
   36.7000   41.9420   22.3090 C   0  0  0  0  0  0  0  0  0  0  0  0
   38.1400   41.0320   24.0450 C   0  0  0  0  0  0  0  0  0  0  0  0
   38.4240   36.6630   29.2430 C   0  0  0  0  0  0  0  0  0  0  0  0
   37.2170   44.4710   22.4590 C   0  0  0  0  0  0  0  0  0  0  0  0
   37.1430   36.8870   28.4200 C   0  0  0  0  0  0  0  0  0  0  0  0
  1 11  1  0
  1  5  1  0
  1  8  1  0
  2 11  1  0
  3  6  1  0
  5 19  1  0
  6 12  1  0
  6 14  1  0
  7 14  1  0
  7 15  1  0
  7 10  1  0
  8  4  1  0
  9 14  1  0
 10 16  1  0
 13  2  1  0
 14 18  1  0
 15 10  1  0
 16 13  1  0
 19  4  1  0
 19 17  1  0
M  END
$$$$

     RDKit          3D

  6  5  0  0  0  0  0  0  0  0999 V2000
   35.6400   36.9580   24.9860 C   0  0  0  0  0  0  0  0  0  0  0  0
   36.0460   38.1590   24.1590 C   0  0  0  0  0  0  0  0  0  0  0  0
   34.9660   39.0900   23.6650 N   0  0  0  0  0  0  0  0  0  0  0  0
   36.5760   36.0060   24.6300 O   0  0  0  0  0  0  0  0  0  0  0  0
   37.0610   38.5160   24.7560 O   0  0  0  0  0  0  0  0  0  0  0  0
   34.0920   36.6940   24.4270 C   0  0  0  0  0  0  0  0  0  0  0  0
  1  6  1  0
  2  3  1  0
  2  5  1  0
  2  1  1  0
  4  1  1  0
M  END
$$$$

     RDKit          3D

  9  9  0  0  0  0  0  0  0  0999 V2000
   36.3860   37.5620   27.6670 C   0  0  0  0  0  0  0  0  0  0  0  0
   36.7730   38.8300   27.2190 O   0  0  0  0  0  0  0  0  0  0  0  0
   36.5600   35.1780   28.0680 C   0  0  0  0  0  0  0  0  0  0  0  0
   35.2700   36.4920   29.5170 C   0  0  0  0  0  0  0  0  0  0  0  0
   35.8620   35.3890   29.1750 N   0  0  0  0  0  0  0  0  0  0  0  0
   36.7940   36.2970   27.2430 C   0  0  0  0  0  0  0  0  0  0  0  0
   34.2520   36.4100   30.6020 C   0  0  0  0  0  0  0  0  0  0  0  0
   35.5670   37.6990   28.7460 C   0  0  0  0  0  0  0  0  0  0  0  0
   36.9790   33.8920   27.7790 N   0  0  0  0  0  0  0  0  0  0  0  0
  1  8  1  0
  2  1  1  0
  3  5  2  0
  4  7  1  0
  5  4  1  0
  6  1  2  0
  6  3  1  0
  8  4  2  0
  9  3  1  0
M  END
$$$$

     RDKit          3D

 12 11  0  0  0  0  0  0  0  0999 V2000
   37.5030   40.2710   21.0410 C   0  0  0  0  0  0  0  0  0  0  0  0
   35.5880   34.6420   29.1350 C   0  0  0  0  0  0  0  0  0  0  0  0
   37.0160   36.7300   25.4000 C   0  0  0  0  0  0  0  0  0  0  0  0
   36.8270   37.1830   22.9610 C   0  0  0  0  0  0  0  0  0  0  0  0
   37.8160   38.8590   21.4000 C   0  0  0  0  0  0  0  0  0  0  0  0
   35.5320   39.2800   21.8820 N   0  0  0  0  0  0  0  0  0  0  0  0
   36.2260   36.8370   24.3200 C   0  0  0  0  0  0  0  0  0  0  0  0
   36.5230   35.8530   26.5950 C   0  0  0  0  0  0  0  0  0  0  0  0
   35.9880   34.7010   27.6690 C   0  0  0  0  0  0  0  0  0  0  0  0
   37.7180   40.8850   20.0270 O   0  0  0  0  0  0  0  0  0  0  0  0
   36.7080   38.6010   22.4010 C   0  0  0  0  0  0  0  0  0  0  0  0
   35.0980   33.5360   29.8130 N   0  0  0  0  0  0  0  0  0  0  0  0
  1  5  1  0
  2 12  1  0
  3  8  2  0
  4  7  1  0
  5 11  1  0
  7  3  1  0
  8  9  2  0
  9  2  1  0
 10  1  2  0
 11  6  1  0
 11  4  1  0
M  END
$$$$

     RDKit          3D

  7  6  0  0  0  0  0  0  0  0999 V2000
   32.7630   38.1310   24.5920 O   0  0  0  0  0  0  0  0  0  0  0  0
   35.4270   39.1940   23.8240 C   0  0  0  0  0  0  0  0  0  0  0  0
   33.5490   37.8150   23.9730 C   0  0  0  0  0  0  0  0  0  0  0  0
   36.6290   39.2170   22.9170 C   0  0  0  0  0  0  0  0  0  0  0  0
   37.7180   38.2580   23.3980 C   0  0  0  0  0  0  0  0  0  0  0  0
   32.5960   37.8590   23.0870 O   0  0  0  0  0  0  0  0  0  0  0  0
   34.9600   37.7220   23.8970 C   0  0  0  0  0  0  0  0  0  0  0  0
  2  7  1  0
  3  1  1  0
  4  5  1  0
  4  2  1  0
  6  3  2  0
  7  3  1  0
M  END
$$$$

     RDKit          3D

 27 28  0  0  0  0  0  0  0  0999 V2000
   34.4600   36.6010   30.3210 O   0  0  0  0  0  0  0  0  0  0  0  0
   37.1400   39.2860   26.7710 C   0  0  0  0  0  0  0  0  0  0  0  0
   38.5500   39.0700   24.8350 N   0  0  0  0  0  0  0  0  0  0  0  0
   35.4140   35.0570   32.2550 C   0  0  0  0  0  0  0  0  0  0  0  0
   34.0000   34.1970   33.9470 C   0  0  0  0  0  0  0  0  0  0  0  0
   34.5460   35.4700   28.5340 C   0  0  0  0  0  0  0  0  0  0  0  0
   38.3580   41.1140   25.8960 O   0  0  0  0  0  0  0  0  0  0  0  0
   33.0490   38.3150   26.0350 C   0  0  0  0  0  0  0  0  0  0  0  0
   35.2690   34.8580   30.9280 C   0  0  0  0  0  0  0  0  0  0  0  0
   34.7240   35.5740   29.8840 C   0  0  0  0  0  0  0  0  0  0  0  0
   37.2100   37.0960   25.5120 C   0  0  0  0  0  0  0  0  0  0  0  0
   31.7760   37.8800   26.2870 C   0  0  0  0  0  0  0  0  0  0  0  0
   38.0410   39.8920   25.8000 C   0  0  0  0  0  0  0  0  0  0  0  0
   37.5860   34.8990   29.8050 C   0  0  0  0  0  0  0  0  0  0  0  0
   36.7250   37.9720   26.5330 C   0  0  0  0  0  0  0  0  0  0  0  0
   39.4920   39.4970   24.1040 O   0  0  0  0  0  0  0  0  0  0  0  0
   40.0930   40.1880   23.1270 C   0  0  0  0  0  0  0  0  0  0  0  0
   34.3850   34.4990   32.9340 O   0  0  0  0  0  0  0  0  0  0  0  0
   36.5800   34.0790   30.3620 C   0  0  0  0  0  0  0  0  0  0  0  0
   34.2740   38.2330   26.1750 N   0  0  0  0  0  0  0  0  0  0  0  0
   38.0910   37.7980   24.5270 C   0  0  0  0  0  0  0  0  0  0  0  0
   31.5030   36.9010   27.2090 C   0  0  0  0  0  0  0  0  0  0  0  0
   34.3400   34.4360   35.3020 C   0  0  0  0  0  0  0  0  0  0  0  0
   32.5150   36.2990   27.9220 C   0  0  0  0  0  0  0  0  0  0  0  0
   33.8470   36.4270   27.8110 C   0  0  0  0  0  0  0  0  0  0  0  0
   34.6980   37.2780   27.1560 C   0  0  0  0  0  0  0  0  0  0  0  0
   35.9960   37.3700   27.4040 N   0  0  0  0  0  0  0  0  0  0  0  0
  3 13  1  0
  4 18  1  0
  5 23  1  0
  6 10  1  0
  8 20  1  0
  8 12  2  0
  9 19  1  0
  9  4  1  0
 10  1  2  0
 10  9  1  0
 11 15  1  0
 12 22  1  0
 13  7  2  0
 13  2  1  0
 14 19  1  0
 15  2  2  0
 15 27  1  0
 16  3  1  0
 17 16  1  0
 18  5  1  0
 20 26  2  0
 21  3  1  0
 21 11  2  0
 22 24  1  0
 25 24  2  0
 25  6  1  0
 26 27  1  0
 26 25  1  0
M  END
$$$$

     RDKit          3D

 10 11  0  0  0  0  0  0  0  0999 V2000
   33.5100   37.5280   23.3900 O   0  0  0  0  0  0  0  0  0  0  0  0
   35.2210   38.3410   24.8280 N   0  0  0  0  0  0  0  0  0  0  0  0
   36.8260   38.1060   23.0330 N   0  0  0  0  0  0  0  0  0  0  0  0
   34.5090   38.5410   23.4840 C   0  0  0  0  0  0  0  0  0  0  0  0
   36.4600   37.6280   24.5070 C   0  0  0  0  0  0  0  0  0  0  0  0
   38.9470   37.7830   23.6020 O   0  0  0  0  0  0  0  0  0  0  0  0
   37.9000   35.9390   23.6450 O   0  0  0  0  0  0  0  0  0  0  0  0
   35.5240   38.2700   22.4060 C   0  0  0  0  0  0  0  0  0  0  0  0
   35.6370   39.0610   21.3270 O   0  0  0  0  0  0  0  0  0  0  0  0
   37.6240   37.2750   23.4810 C   0  0  0  0  0  0  0  0  0  0  0  0
  3 10  1  0
  3  5  1  0
  4  1  1  0
  4  2  1  0
  5  2  1  0
  8  9  1  0
  8  3  1  0
  8  4  1  0
 10  6  1  0
 10  7  1  0
 10  5  1  0
M  END
$$$$

     RDKit          3D

 11 11  0  0  0  0  0  0  0  0999 V2000
   40.5060   38.3580   23.1080 O   0  0  0  0  0  0  0  0  0  0  0  0
   38.4110   37.5410   22.7470 C   0  0  0  0  0  0  0  0  0  0  0  0
   41.2190   39.1620   25.3710 C   0  0  0  0  0  0  0  0  0  0  0  0
   39.0440   37.8930   24.9180 C   0  0  0  0  0  0  0  0  0  0  0  0
   40.3620   38.5060   27.7380 C   0  0  0  0  0  0  0  0  0  0  0  0
   41.0480   38.9490   26.8320 C   0  0  0  0  0  0  0  0  0  0  0  0
   39.1140   37.6520   27.4430 N   0  0  0  0  0  0  0  0  0  0  0  0
   37.8720   37.7350   23.9640 C   0  0  0  0  0  0  0  0  0  0  0  0
   38.5300   37.5200   26.1470 C   0  0  0  0  0  0  0  0  0  0  0  0
   40.2420   38.3920   24.3390 C   0  0  0  0  0  0  0  0  0  0  0  0
   37.4730   36.7240   26.2400 N   0  0  0  0  0  0  0  0  0  0  0  0
  1 10  2  0
  2  8  1  0
  3  6  1  0
  4  8  1  0
  4  9  1  0
  6  5  2  0
  7  5  1  0
  9 11  2  0
  9  7  1  0
 10  4  1  0
 10  3  1  0
M  END
$$$$

     RDKit          3D

 16 15  0  0  0  0  0  0  0  0999 V2000
   36.4410   37.6660   29.1220 C   0  0  0  0  0  0  0  0  0  0  0  0
   38.8620   40.5860   29.0690 O   0  0  0  0  0  0  0  0  0  0  0  0
   36.3810   38.2650   30.5120 C   0  0  0  0  0  0  0  0  0  0  0  0
   37.0820   35.3600   28.4960 O   0  0  0  0  0  0  0  0  0  0  0  0
   33.7700   36.2150   29.8480 C   0  0  0  0  0  0  0  0  0  0  0  0
   35.8030   35.3430   31.0830 C   0  0  0  0  0  0  0  0  0  0  0  0
   38.0950   40.7190   28.1090 C   0  0  0  0  0  0  0  0  0  0  0  0
   38.0970   42.0420   27.4830 N   0  0  0  0  0  0  0  0  0  0  0  0
   37.1880   39.5690   27.7480 C   0  0  0  0  0  0  0  0  0  0  0  0
   36.0220   36.2780   28.7330 C   0  0  0  0  0  0  0  0  0  0  0  0
   39.4260   42.2430   26.8280 C   0  0  0  0  0  0  0  0  0  0  0  0
   35.1390   35.6360   29.7650 C   0  0  0  0  0  0  0  0  0  0  0  0
   37.0880   42.4480   26.4670 C   0  0  0  0  0  0  0  0  0  0  0  0
   38.8280   37.7950   28.7130 O   0  0  0  0  0  0  0  0  0  0  0  0
   37.5570   38.1550   28.2070 C   0  0  0  0  0  0  0  0  0  0  0  0
   35.7030   41.9520   26.4370 C   0  0  0  0  0  0  0  0  0  0  0  0
  1  3  1  0
  7  2  2  0
  8  7  1  0
  9  7  1  0
  9 15  1  0
 10  4  1  0
 10  1  1  0
 10 12  1  0
 11  8  1  0
 12  5  1  0
 12  6  1  0
 13  8  1  0
 15 14  1  0
 15  1  1  0
 16 13  1  0
M  END
$$$$
