
     RDKit          3D

  8  9  0  0  0  0  0  0  0  0999 V2000
   35.6850   38.5270   29.4980 C   0  0  0  0  0  0  0  0  0  0  0  0
   35.6910   40.0680   27.7890 O   0  0  0  0  0  0  0  0  0  0  0  0
   34.7050   39.2630   28.6260 C   0  0  0  0  0  0  0  0  0  0  0  0
   38.1110   38.4970   28.9850 C   0  0  0  0  0  0  0  0  0  0  0  0
   35.6710   37.4460   30.4220 C   0  0  0  0  0  0  0  0  0  0  0  0
   38.0450   37.6590   30.2070 C   0  0  0  0  0  0  0  0  0  0  0  0
   36.9180   37.0750   30.8420 C   0  0  0  0  0  0  0  0  0  0  0  0
   36.9520   39.1200   29.6090 C   0  0  0  0  0  0  0  0  0  0  0  0
  1  3  1  0
  1  8  1  0
  1  5  1  0
  2  3  1  0
  5  7  1  0
  6  4  1  0
  6  7  1  0
  8  4  1  0
  8  6  1  0
M  END
$$$$

     RDKit          3D

 23 23  0  0  0  0  0  0  0  0999 V2000
   36.7910   34.4380   29.8680 C   0  0  0  0  0  0  0  0  0  0  0  0
   36.4270   43.0260   26.4960 C   0  0  0  0  0  0  0  0  0  0  0  0
   37.6050   33.6420   30.2460 C   0  0  0  0  0  0  0  0  0  0  0  0
   37.1490   28.7040   29.2360 O   0  0  0  0  0  0  0  0  0  0  0  0
   37.4600   31.3280   29.5860 C   0  0  0  0  0  0  0  0  0  0  0  0
   38.2330   32.4360   29.6360 C   0  0  0  0  0  0  0  0  0  0  0  0
   38.3450   39.5350   29.6580 C   0  0  0  0  0  0  0  0  0  0  0  0
   34.9650   38.5050   31.2630 C   0  0  0  0  0  0  0  0  0  0  0  0
   36.1540   35.7210   30.3960 C   0  0  0  0  0  0  0  0  0  0  0  0
   35.1830   35.4690   31.3130 O   0  0  0  0  0  0  0  0  0  0  0  0
   36.9860   28.9230   30.7440 C   0  0  0  0  0  0  0  0  0  0  0  0
   35.3250   39.9130   28.2750 O   0  0  0  0  0  0  0  0  0  0  0  0
   36.3970   42.0550   27.2440 C   0  0  0  0  0  0  0  0  0  0  0  0
   36.4550   40.2220   28.7830 C   0  0  0  0  0  0  0  0  0  0  0  0
   37.0850   41.2930   28.1340 N   0  0  0  0  0  0  0  0  0  0  0  0
   36.4180   36.9380   29.8900 N   0  0  0  0  0  0  0  0  0  0  0  0
   36.9000   39.3830   29.9780 C   0  0  0  0  0  0  0  0  0  0  0  0
   33.6330   37.8660   30.9630 C   0  0  0  0  0  0  0  0  0  0  0  0
   38.2960   41.8340   28.3780 O   0  0  0  0  0  0  0  0  0  0  0  0
   38.5160   29.1590   28.8590 C   0  0  0  0  0  0  0  0  0  0  0  0
   38.8200   38.5400   28.6210 C   0  0  0  0  0  0  0  0  0  0  0  0
   37.6980   29.8300   29.8660 C   0  0  0  0  0  0  0  0  0  0  0  0
   36.0690   38.1540   30.2830 C   0  0  0  0  0  0  0  0  0  0  0  0
  1  3  2  3
  1  9  1  0
  2 13  2  0
  4 22  1  0
  5  6  1  0
  5 22  1  0
  6  3  1  0
  9 10  2  0
 12 14  2  0
 13 15  1  0
 14 17  1  0
 15 19  1  0
 15 14  1  0
 16 23  1  0
 16  9  1  0
 17  7  1  0
 17 23  1  0
 18  8  1  0
 20  4  1  0
 20 22  1  0
 21  7  1  0
 22 11  1  0
 23  8  1  0
M  END
$$$$

     RDKit          3D

 10 10  0  0  0  0  0  0  0  0999 V2000
   36.1850   40.6450   25.8680 C   0  0  0  0  0  0  0  0  0  0  0  0
   37.4810   39.0160   27.8820 C   0  0  0  0  0  0  0  0  0  0  0  0
   39.6460   37.3060   27.9220 O   0  0  0  0  0  0  0  0  0  0  0  0
   36.4640   40.5590   24.5820 O   0  0  0  0  0  0  0  0  0  0  0  0
   38.3550   39.8550   26.0540 N   0  0  0  0  0  0  0  0  0  0  0  0
   38.6690   38.2990   27.5730 C   0  0  0  0  0  0  0  0  0  0  0  0
   36.6800   38.6750   28.9000 O   0  0  0  0  0  0  0  0  0  0  0  0
   35.1520   41.4620   26.0550 O   0  0  0  0  0  0  0  0  0  0  0  0
   37.1230   39.9190   26.8210 C   0  0  0  0  0  0  0  0  0  0  0  0
   38.9930   39.0190   26.6160 O   0  0  0  0  0  0  0  0  0  0  0  0
  1  8  1  0
  2  7  1  0
  4  1  2  0
  5 10  1  0
  5  9  1  0
  6  2  1  0
  6  3  2  0
  9  1  1  0
  9  2  1  0
 10  6  1  0
M  END
$$$$

     RDKit          3D

 23 25  0  0  0  0  0  0  0  0999 V2000
   39.0070   38.3760   28.3610 C   0  0  0  0  0  0  0  0  0  0  0  0
   29.4190   35.8950   30.0200 N   0  0  0  0  0  0  0  0  0  0  0  0
   33.6950   37.0570   30.7420 C   0  0  0  0  0  0  0  0  0  0  0  0
   37.3830   34.3310   30.7310 C   0  0  0  0  0  0  0  0  0  0  0  0
   31.2260   37.0380   28.9010 C   0  0  0  0  0  0  0  0  0  0  0  0
   35.1310   36.9110   31.3180 C   0  0  0  0  0  0  0  0  0  0  0  0
   31.3800   36.1690   31.3260 C   0  0  0  0  0  0  0  0  0  0  0  0
   39.0840   33.9520   28.4270 O   0  0  0  0  0  0  0  0  0  0  0  0
   36.2520   37.1410   30.6440 N   0  0  0  0  0  0  0  0  0  0  0  0
   39.6890   36.0270   28.1680 C   0  0  0  0  0  0  0  0  0  0  0  0
   39.6780   37.4410   27.7850 C   0  0  0  0  0  0  0  0  0  0  0  0
   37.9770   38.1050   29.3780 C   0  0  0  0  0  0  0  0  0  0  0  0
   37.8570   35.4900   29.8070 C   0  0  0  0  0  0  0  0  0  0  0  0
   32.3570   37.7150   28.7490 C   0  0  0  0  0  0  0  0  0  0  0  0
   35.2100   36.7130   32.5160 O   0  0  0  0  0  0  0  0  0  0  0  0
   33.4770   37.7720   29.6680 C   0  0  0  0  0  0  0  0  0  0  0  0
   38.8200   35.2760   28.7790 C   0  0  0  0  0  0  0  0  0  0  0  0
   37.3660   39.4250   29.8100 C   0  0  0  0  0  0  0  0  0  0  0  0
   38.2300   32.9050   28.7720 C   0  0  0  0  0  0  0  0  0  0  0  0
   30.7380   36.3930   30.1000 C   0  0  0  0  0  0  0  0  0  0  0  0
   37.4280   36.8590   29.9820 C   0  0  0  0  0  0  0  0  0  0  0  0
   32.7160   36.3930   31.6200 C   0  0  0  0  0  0  0  0  0  0  0  0
   37.3160   32.9820   29.9760 C   0  0  0  0  0  0  0  0  0  0  0  0
  1 12  1  0
  2 20  1  0
  3  6  1  0
  3 22  1  0
  5 20  1  0
  6 15  2  0
  7 22  1  0
  8 19  1  0
  8 17  1  0
  9  6  1  0
 10 17  2  0
 11 10  1  0
 11  1  2  0
 12 18  1  0
 12 21  1  0
 13 21  2  0
 13  4  1  0
 14  5  2  0
 14 16  1  0
 16  3  2  0
 17 13  1  0
 19 23  1  0
 20  7  2  0
 21  9  1  0
 23  4  1  0
M  END
$$$$

     RDKit          3D

  7  7  0  0  0  0  0  0  0  0999 V2000
   38.8950   40.5550   26.7030 C   0  0  0  0  0  0  0  0  0  0  0  0
   38.8860   39.4910   25.7990 C   0  0  0  0  0  0  0  0  0  0  0  0
   40.0350   41.0050   28.8000 O   0  0  0  0  0  0  0  0  0  0  0  0
   38.9270   40.9290   25.2570 C   0  0  0  0  0  0  0  0  0  0  0  0
   39.9680   40.0340   27.7840 C   0  0  0  0  0  0  0  0  0  0  0  0
   40.0810   38.9040   25.0990 C   0  0  0  0  0  0  0  0  0  0  0  0
   37.8040   38.9380   25.0660 F   0  0  0  0  0  0  0  0  0  0  0  0
  1  5  1  0
  2  6  1  0
  2  1  1  0
  4  2  1  0
  4  1  1  0
  5  3  1  0
  7  2  1  0
M  END
$$$$

     RDKit          3D

 10 10  0  0  0  0  0  0  0  0999 V2000
   38.7550   38.1830   28.7660 C   0  0  0  0  0  0  0  0  0  0  0  0
   37.4840   40.2600   29.2990 C   0  0  0  0  0  0  0  0  0  0  0  0
   37.7950   38.8380   29.7120 C   0  0  0  0  0  0  0  0  0  0  0  0
   36.3900   41.1170   29.5950 C   0  0  0  0  0  0  0  0  0  0  0  0
   37.3000   38.2850   30.8180 O   0  0  0  0  0  0  0  0  0  0  0  0
   38.1470   40.2980   27.9220 O   0  0  0  0  0  0  0  0  0  0  0  0
   35.9620   42.0230   28.6590 O   0  0  0  0  0  0  0  0  0  0  0  0
   36.4400   41.4710   30.9940 O   0  0  0  0  0  0  0  0  0  0  0  0
   39.2850   38.8130   26.2880 C   0  0  0  0  0  0  0  0  0  0  0  0
   38.6400   39.0490   27.5180 C   0  0  0  0  0  0  0  0  0  0  0  0
  1  3  1  0
  2  4  1  0
  2  3  1  0
  3  5  1  0
  4  8  1  0
  6  2  1  0
  7  4  2  0
 10  9  1  0
 10  6  1  0
 10  1  1  0
M  END
$$$$

     RDKit          3D

 16 16  0  0  0  0  0  0  0  0999 V2000
   40.7530   39.3160   25.6300 O   0  0  0  0  0  0  0  0  0  0  0  0
   32.5030   36.4290   31.5430 C   0  0  0  0  0  0  0  0  0  0  0  0
   34.2700   38.0660   28.8560 C   0  0  0  0  0  0  0  0  0  0  0  0
   36.1140   36.4140   30.6190 C   0  0  0  0  0  0  0  0  0  0  0  0
   39.8870   40.0290   25.8680 C   0  0  0  0  0  0  0  0  0  0  0  0
   39.0090   38.8020   27.8240 C   0  0  0  0  0  0  0  0  0  0  0  0
   37.8490   37.4630   29.3340 C   0  0  0  0  0  0  0  0  0  0  0  0
   31.8830   36.9040   28.6210 Br  0  0  0  0  0  0  0  0  0  0  0  0
   35.5820   38.4510   29.0210 C   0  0  0  0  0  0  0  0  0  0  0  0
   39.4060   40.7550   24.6850 O   0  0  0  0  0  0  0  0  0  0  0  0
   33.7470   36.6610   30.7120 C   0  0  0  0  0  0  0  0  0  0  0  0
   34.8870   36.2410   31.1620 C   0  0  0  0  0  0  0  0  0  0  0  0
   33.6090   37.2960   29.5040 C   0  0  0  0  0  0  0  0  0  0  0  0
   39.2440   40.2340   27.1820 C   0  0  0  0  0  0  0  0  0  0  0  0
   36.4240   37.3710   29.6810 C   0  0  0  0  0  0  0  0  0  0  0  0
   38.1190   39.0580   29.0510 C   0  0  0  0  0  0  0  0  0  0  0  0
  1  5  1  0
  3  9  1  0
  3 13  2  0
  4 12  1  0
  5 14  1  0
  6 16  1  0
  7 15  1  0
  8 13  1  0
  9 15  1  0
 10  5  2  0
 11 12  2  0
 11  2  1  0
 13 11  1  0
 14  6  1  0
 15  4  2  0
 16  7  1  0
M  END
$$$$

     RDKit          3D

 10 11  0  0  0  0  0  0  0  0999 V2000
   33.1270   37.5310   29.8020 N   0  0  0  0  0  0  0  0  0  0  0  0
   36.4770   38.9540   28.7860 N   0  0  0  0  0  0  0  0  0  0  0  0
   35.4310   38.5080   29.7360 C   0  0  0  0  0  0  0  0  0  0  0  0
   37.6720   39.3740   29.5570 C   0  0  0  0  0  0  0  0  0  0  0  0
   38.5390   38.1430   29.4230 C   0  0  0  0  0  0  0  0  0  0  0  0
   36.0200   39.1630   27.6170 C   0  0  0  0  0  0  0  0  0  0  0  0
   36.8910   38.0310   27.8000 C   0  0  0  0  0  0  0  0  0  0  0  0
   34.2920   37.8940   28.9890 C   0  0  0  0  0  0  0  0  0  0  0  0
   32.3230   36.5420   29.2420 N   0  0  0  0  0  0  0  0  0  0  0  0
   38.3770   37.7390   27.9260 C   0  0  0  0  0  0  0  0  0  0  0  0
  2  4  1  0
  2  3  1  0
  5  4  1  0
  6  2  1  0
  7  6  1  0
  7 10  1  0
  7  2  1  0
  8  3  1  0
  8  1  1  0
  9  1  1  0
 10  5  1  0
M  END
$$$$

     RDKit          3D

 12 13  0  0  0  0  0  0  0  0999 V2000
   37.0300   40.7220   26.0330 C   0  0  0  0  0  0  0  0  0  0  0  0
   40.7600   39.3360   27.6610 C   0  0  0  0  0  0  0  0  0  0  0  0
   41.3280   40.4310   28.2840 C   0  0  0  0  0  0  0  0  0  0  0  0
   39.4350   39.3650   27.2550 C   0  0  0  0  0  0  0  0  0  0  0  0
   35.4710   39.8460   24.2900 C   0  0  0  0  0  0  0  0  0  0  0  0
   35.3090   39.6500   26.8060 N   0  0  0  0  0  0  0  0  0  0  0  0
   39.1180   41.4380   28.4670 C   0  0  0  0  0  0  0  0  0  0  0  0
   37.3050   40.2270   27.1850 N   0  0  0  0  0  0  0  0  0  0  0  0
   40.4890   41.4090   28.8300 C   0  0  0  0  0  0  0  0  0  0  0  0
   35.8850   40.1330   25.6790 N   0  0  0  0  0  0  0  0  0  0  0  0
   36.3040   39.5120   27.7000 N   0  0  0  0  0  0  0  0  0  0  0  0
   38.5710   40.3370   27.7150 C   0  0  0  0  0  0  0  0  0  0  0  0
  1  8  1  0
  2  3  1  0
  3  9  2  0
  4  2  2  0
  4 12  1  0
  5 10  1  0
  6 11  1  0
  7  9  1  0
  8 11  1  0
  8 12  1  0
 10  1  1  0
 10  6  1  0
 12  7  2  0
M  END
$$$$

     RDKit          3D

 14 14  0  0  0  0  0  0  0  0999 V2000
   40.7180   39.3410   25.4440 C   0  0  0  0  0  0  0  0  0  0  0  0
   39.9920   42.4710   27.2050 C   0  0  0  0  0  0  0  0  0  0  0  0
   40.8120   41.1830   27.1780 C   0  0  0  0  0  0  0  0  0  0  0  0
   37.8730   43.8830   27.7420 C   0  0  0  0  0  0  0  0  0  0  0  0
   40.8830   40.5910   28.4890 O   0  0  0  0  0  0  0  0  0  0  0  0
   37.8460   41.4400   27.1380 C   0  0  0  0  0  0  0  0  0  0  0  0
   36.9180   39.5560   27.9280 O   0  0  0  0  0  0  0  0  0  0  0  0
   37.4600   44.1080   26.4380 O   0  0  0  0  0  0  0  0  0  0  0  0
   42.0430   41.4540   26.3270 C   0  0  0  0  0  0  0  0  0  0  0  0
   40.5840   43.5280   26.9820 O   0  0  0  0  0  0  0  0  0  0  0  0
   39.9390   40.2160   26.3920 C   0  0  0  0  0  0  0  0  0  0  0  0
   37.9270   39.1530   27.0750 C   0  0  0  0  0  0  0  0  0  0  0  0
   38.6230   42.5260   27.8100 C   0  0  0  0  0  0  0  0  0  0  0  0
   38.7230   40.3280   26.9660 N   0  0  0  0  0  0  0  0  0  0  0  0
  2 13  1  0
  3  9  1  0
  3  2  1  0
  3  5  1  0
  6 13  1  0
  8  4  1  0
 10  2  2  0
 11  1  1  0
 11 14  1  0
 11  3  1  0
 12  7  1  0
 13  4  1  0
 14 12  1  0
 14  6  1  0
M  END
$$$$

     RDKit          3D

 25 26  0  0  0  0  0  0  0  0999 V2000
   33.9640   37.7190   31.2670 C   0  0  0  0  0  0  0  0  0  0  0  0
   32.9370   36.6870   31.7300 C   0  0  0  0  0  0  0  0  0  0  0  0
   35.7010   34.1310   31.5930 C   0  0  0  0  0  0  0  0  0  0  0  0
   36.6180   30.6870   30.7950 C   0  0  0  0  0  0  0  0  0  0  0  0
   33.4950   35.3010   31.8540 C   0  0  0  0  0  0  0  0  0  0  0  0
   35.2130   38.6220   29.3660 C   0  0  0  0  0  0  0  0  0  0  0  0
   36.4930   39.8010   27.6980 C   0  0  0  0  0  0  0  0  0  0  0  0
   35.3240   38.9680   28.0410 C   0  0  0  0  0  0  0  0  0  0  0  0
   33.0180   34.3130   32.1040 O   0  0  0  0  0  0  0  0  0  0  0  0
   41.0400   42.3450   28.3820 O   0  0  0  0  0  0  0  0  0  0  0  0
   37.9880   32.7190   31.4630 C   0  0  0  0  0  0  0  0  0  0  0  0
   36.7400   32.0890   31.3270 C   0  0  0  0  0  0  0  0  0  0  0  0
   34.3010   37.6250   29.7870 C   0  0  0  0  0  0  0  0  0  0  0  0
   35.6530   32.8240   31.3740 N   0  0  0  0  0  0  0  0  0  0  0  0
   34.8150   35.1690   31.7570 N   0  0  0  0  0  0  0  0  0  0  0  0
   34.1600   36.6770   29.0210 O   0  0  0  0  0  0  0  0  0  0  0  0
   35.9950   39.2870   30.3050 C   0  0  0  0  0  0  0  0  0  0  0  0
   39.0300   41.7980   29.0510 C   0  0  0  0  0  0  0  0  0  0  0  0
   38.2920   41.0250   28.2550 N   0  0  0  0  0  0  0  0  0  0  0  0
   39.0690   41.8060   30.2570 O   0  0  0  0  0  0  0  0  0  0  0  0
   37.1710   40.3990   28.5460 C   0  0  0  0  0  0  0  0  0  0  0  0
   36.8560   34.7860   31.6930 C   0  0  0  0  0  0  0  0  0  0  0  0
   40.1930   42.5330   28.4800 C   0  0  0  0  0  0  0  0  0  0  0  0
   38.0220   34.0810   31.5600 C   0  0  0  0  0  0  0  0  0  0  0  0
   36.7620   40.3320   29.8490 C   0  0  0  0  0  0  0  0  0  0  0  0
  1  2  1  0
  2  5  1  0
  3 22  1  0
  3 15  1  0
  4 12  1  0
  5  9  2  0
  6 13  1  0
  6 17  1  0
  7  8  1  0
  7 21  2  0
  8  6  2  0
 10 23  2  0
 11 24  1  0
 12 14  1  0
 12 11  2  0
 13  1  1  0
 14  3  2  0
 15  5  1  0
 16 13  2  0
 18 20  2  0
 19 21  1  0
 19 18  1  0
 21 25  1  0
 23 18  1  0
 24 22  2  0
 25 17  2  0
M  END
$$$$

     RDKit          3D

  9  9  0  0  0  0  0  0  0  0999 V2000
   36.4250   38.8250   25.0300 C   0  0  0  0  0  0  0  0  0  0  0  0
   37.1230   41.1520   25.6060 C   0  0  0  0  0  0  0  0  0  0  0  0
   38.7570   37.9060   26.7460 O   0  0  0  0  0  0  0  0  0  0  0  0
   39.1810   40.5920   24.2750 C   0  0  0  0  0  0  0  0  0  0  0  0
   38.3640   41.6420   24.9780 O   0  0  0  0  0  0  0  0  0  0  0  0
   39.7360   39.6770   25.4120 C   0  0  0  0  0  0  0  0  0  0  0  0
   36.5170   39.6520   27.3580 O   0  0  0  0  0  0  0  0  0  0  0  0
   37.1900   39.6120   26.1030 C   0  0  0  0  0  0  0  0  0  0  0  0
   38.5930   38.9920   26.2190 C   0  0  0  0  0  0  0  0  0  0  0  0
  2  8  1  0
  4  5  1  0
  4  6  1  0
  5  2  1  0
  6  9  1  0
  8  1  1  0
  8  9  1  0
  8  7  1  0
  9  3  2  0
M  END
$$$$

     RDKit          3D

 18 19  0  0  0  0  0  0  0  0999 V2000
   32.1780   37.4340   29.9650 N   0  0  0  0  0  0  0  0  0  0  0  0
   35.0730   38.3020   29.9550 C   0  0  0  0  0  0  0  0  0  0  0  0
   36.5840   36.1030   30.9580 N   0  0  0  0  0  0  0  0  0  0  0  0
   40.2250   37.2900   28.0050 F   0  0  0  0  0  0  0  0  0  0  0  0
   33.3940   35.2910   33.0100 C   0  0  0  0  0  0  0  0  0  0  0  0
   40.2670   37.7670   30.0190 F   0  0  0  0  0  0  0  0  0  0  0  0
   38.8560   35.3610   29.6970 O   0  0  0  0  0  0  0  0  0  0  0  0
   37.0980   36.5200   29.7740 C   0  0  0  0  0  0  0  0  0  0  0  0
   32.5270   36.6700   31.1250 C   0  0  0  0  0  0  0  0  0  0  0  0
   31.4620   36.1200   31.6420 O   0  0  0  0  0  0  0  0  0  0  0  0
   38.3260   36.5340   29.5610 C   0  0  0  0  0  0  0  0  0  0  0  0
   39.0110   39.0910   28.7880 C   0  0  0  0  0  0  0  0  0  0  0  0
   36.5130   38.4890   30.1560 N   0  0  0  0  0  0  0  0  0  0  0  0
   34.8590   37.3960   30.7220 C   0  0  0  0  0  0  0  0  0  0  0  0
   34.4670   35.8680   32.1550 C   0  0  0  0  0  0  0  0  0  0  0  0
   36.3780   37.3180   30.8210 C   0  0  0  0  0  0  0  0  0  0  0  0
   39.3050   37.5880   28.9580 C   0  0  0  0  0  0  0  0  0  0  0  0
   33.9730   36.6480   31.3480 C   0  0  0  0  0  0  0  0  0  0  0  0
  1  9  1  0
  2 13  1  0
  2 14  1  0
  4 17  1  0
  8 11  1  0
  8 16  1  0
  8  3  1  0
  9 18  1  0
  9 10  2  0
 11  7  1  0
 12 17  1  0
 14 16  1  0
 14 18  2  3
 15  5  1  0
 16 13  1  0
 16  3  1  0
 17 11  1  0
 17  6  1  0
 18 15  1  0
M  END
$$$$

     RDKit          3D

 10 10  0  0  0  0  0  0  0  0999 V2000
   36.2880   39.8980   27.6290 C   0  0  0  0  0  0  0  0  0  0  0  0
   36.8240   38.6360   28.2360 C   0  0  0  0  0  0  0  0  0  0  0  0
   38.8060   40.4250   27.3190 C   0  0  0  0  0  0  0  0  0  0  0  0
   38.3300   35.9280   29.1140 O   0  0  0  0  0  0  0  0  0  0  0  0
   38.9850   38.9020   27.4880 C   0  0  0  0  0  0  0  0  0  0  0  0
   38.9790   36.8850   28.5930 C   0  0  0  0  0  0  0  0  0  0  0  0
   40.1000   36.6240   28.1640 O   0  0  0  0  0  0  0  0  0  0  0  0
   40.2170   38.5780   27.0920 O   0  0  0  0  0  0  0  0  0  0  0  0
   38.2890   38.3100   28.5670 C   0  0  0  0  0  0  0  0  0  0  0  0
   37.3490   40.8380   27.1980 C   0  0  0  0  0  0  0  0  0  0  0  0
  1  2  1  0
  2  9  1  0
  3  5  1  0
  5  8  1  0
  5  9  1  0
  6  4  1  0
  7  6  2  0
  9  6  1  0
 10  3  1  0
 10  1  1  0
M  END
$$$$

     RDKit          3D

 23 25  0  0  0  0  0  0  0  0999 V2000
   35.4520   37.6900   30.3790 C   0  0  0  0  0  0  0  0  0  0  0  0
   32.0000   34.6400   29.1070 N   0  0  0  0  0  0  0  0  0  0  0  0
   31.7290   32.5400   30.2140 O   0  0  0  0  0  0  0  0  0  0  0  0
   33.7470   36.7140   31.8120 C   0  0  0  0  0  0  0  0  0  0  0  0
   39.4350   40.1780   29.5850 C   0  0  0  0  0  0  0  0  0  0  0  0
   39.7510   40.2340   30.7800 O   0  0  0  0  0  0  0  0  0  0  0  0
   36.2660   37.7790   31.2760 O   0  0  0  0  0  0  0  0  0  0  0  0
   38.5630   37.8160   30.9650 O   0  0  0  0  0  0  0  0  0  0  0  0
   32.7540   34.3990   31.4600 C   0  0  0  0  0  0  0  0  0  0  0  0
   35.5060   38.3260   29.1770 C   0  0  0  0  0  0  0  0  0  0  0  0
   38.3610   39.2450   29.0890 C   0  0  0  0  0  0  0  0  0  0  0  0
   39.9070   41.1600   28.5860 C   0  0  0  0  0  0  0  0  0  0  0  0
   38.9370   41.0330   27.3540 C   0  0  0  0  0  0  0  0  0  0  0  0
   39.0460   38.5770   27.8800 C   0  0  0  0  0  0  0  0  0  0  0  0
   32.4780   35.8640   31.6130 C   0  0  0  0  0  0  0  0  0  0  0  0
   32.1090   33.7230   30.2450 C   0  0  0  0  0  0  0  0  0  0  0  0
   33.8060   36.5320   29.3680 C   0  0  0  0  0  0  0  0  0  0  0  0
   35.3920   38.6810   28.1360 O   0  0  0  0  0  0  0  0  0  0  0  0
   38.1380   39.7560   27.6650 C   0  0  0  0  0  0  0  0  0  0  0  0
   34.3330   37.0050   30.5010 N   0  0  0  0  0  0  0  0  0  0  0  0
   33.0870   35.5480   28.8280 C   0  0  0  0  0  0  0  0  0  0  0  0
   40.1830   42.3670   29.2930 O   0  0  0  0  0  0  0  0  0  0  0  0
   37.6370   38.4890   30.3370 C   0  0  0  0  0  0  0  0  0  0  0  0
  1 20  1  0
  1  7  1  0
  2 16  1  0
  3 16  2  0
  5  6  2  0
  9 15  1  0
 10  1  2  0
 11  5  1  0
 11 23  1  0
 12 22  1  0
 12  5  1  0
 13 12  1  0
 14 11  1  0
 15  4  1  0
 16  9  1  0
 17 20  1  0
 18 10  2  0
 19 13  1  0
 19 14  1  0
 19 11  1  0
 20  4  1  0
 21  2  1  0
 21 17  1  0
 23  8  2  0
 23  7  1  0
M  END
$$$$

     RDKit          3D

 14 15  0  0  0  0  0  0  0  0999 V2000
   32.5930   36.0780   29.0280 C   0  0  0  0  0  0  0  0  0  0  0  0
   38.3220   39.3760   29.6850 C   0  0  0  0  0  0  0  0  0  0  0  0
   33.8560   36.4900   28.9820 C   0  0  0  0  0  0  0  0  0  0  0  0
   38.1770   36.1050   29.8610 S   0  0  0  0  0  0  0  0  0  0  0  0
   35.8160   36.8070   29.2480 C   0  0  0  0  0  0  0  0  0  0  0  0
   34.9710   38.5600   28.5790 C   0  0  0  0  0  0  0  0  0  0  0  0
   36.8680   37.3850   29.3790 C   0  0  0  0  0  0  0  0  0  0  0  0
   36.1460   39.1830   28.8330 C   0  0  0  0  0  0  0  0  0  0  0  0
   34.7560   37.3340   28.9760 N   0  0  0  0  0  0  0  0  0  0  0  0
   36.4950   40.5740   28.3130 C   0  0  0  0  0  0  0  0  0  0  0  0
   33.8700   39.0650   27.7860 C   0  0  0  0  0  0  0  0  0  0  0  0
   35.3410   35.6320   29.3850 N   0  0  0  0  0  0  0  0  0  0  0  0
   33.1910   39.3620   26.8180 N   0  0  0  0  0  0  0  0  0  0  0  0
   37.1030   38.6260   29.4010 N   0  0  0  0  0  0  0  0  0  0  0  0
  3  1  2  0
  3 12  1  0
  5  7  1  0
  5 12  1  0
  6  8  2  0
  6  9  1  0
  7 14  1  0
  7  4  2  0
  8 14  1  0
  9  3  1  0
  9  5  1  0
 10  8  1  0
 11  6  1  0
 13 11  3  0
 14  2  1  0
M  END
$$$$

     RDKit          3D

 10 10  0  0  0  0  0  0  0  0999 V2000
   39.7580   39.6470   29.0400 O   0  0  0  0  0  0  0  0  0  0  0  0
   40.1350   40.7940   26.3110 O   0  0  0  0  0  0  0  0  0  0  0  0
   39.1260   38.9210   25.2720 O   0  0  0  0  0  0  0  0  0  0  0  0
   38.0230   39.8290   27.4010 C   0  0  0  0  0  0  0  0  0  0  0  0
   39.1480   38.9920   27.9070 C   0  0  0  0  0  0  0  0  0  0  0  0
   37.6640   42.2240   27.6720 O   0  0  0  0  0  0  0  0  0  0  0  0
   40.4770   37.0330   27.7900 O   0  0  0  0  0  0  0  0  0  0  0  0
   40.2580   38.1250   27.2430 C   0  0  0  0  0  0  0  0  0  0  0  0
   39.0270   39.8670   26.3540 C   0  0  0  0  0  0  0  0  0  0  0  0
   37.4390   41.0560   27.9310 C   0  0  0  0  0  0  0  0  0  0  0  0
  2  9  1  0
  3  9  1  0
  4  5  1  0
  4 10  1  0
  5  1  1  0
  6 10  2  0
  8  7  2  0
  8  5  1  0
  9  4  1  0
  9  5  1  0
M  END
$$$$

     RDKit          3D

 29 35  0  0  0  0  0  0  0  0999 V2000
   34.4550   37.6300   30.4610 C   0  0  0  0  0  0  0  0  0  0  0  0
   36.8120   39.6630   26.8410 C   0  0  0  0  0  0  0  0  0  0  0  0
   33.7890   38.8700   28.2820 N   0  0  0  0  0  0  0  0  0  0  0  0
   33.8450   32.5850   31.6540 C   0  0  0  0  0  0  0  0  0  0  0  0
   34.1340   33.9830   31.8670 C   0  0  0  0  0  0  0  0  0  0  0  0
   34.0350   39.8990   25.9580 C   0  0  0  0  0  0  0  0  0  0  0  0
   37.2740   31.7240   31.0360 C   0  0  0  0  0  0  0  0  0  0  0  0
   34.4900   39.3790   27.2800 C   0  0  0  0  0  0  0  0  0  0  0  0
   36.5520   38.4370   30.3920 C   0  0  0  0  0  0  0  0  0  0  0  0
   38.9390   38.8770   27.8800 O   0  0  0  0  0  0  0  0  0  0  0  0
   35.0520   40.3490   25.0930 N   0  0  0  0  0  0  0  0  0  0  0  0
   32.6920   39.6500   25.3630 C   0  0  0  0  0  0  0  0  0  0  0  0
   34.9580   31.8900   31.1280 C   0  0  0  0  0  0  0  0  0  0  0  0
   34.5030   38.4090   29.3370 C   0  0  0  0  0  0  0  0  0  0  0  0
   35.2380   36.5750   32.1420 C   0  0  0  0  0  0  0  0  0  0  0  0
   36.2520   32.8260   31.0040 C   0  0  0  0  0  0  0  0  0  0  0  0
   37.7130   31.5740   29.5930 C   0  0  0  0  0  0  0  0  0  0  0  0
   34.5940   41.6590   24.4750 C   0  0  0  0  0  0  0  0  0  0  0  0
   34.5950   36.5610   33.2090 O   0  0  0  0  0  0  0  0  0  0  0  0
   38.1870   39.5130   26.9320 C   0  0  0  0  0  0  0  0  0  0  0  0
   36.5220   40.3730   25.8370 C   0  0  0  0  0  0  0  0  0  0  0  0
   37.4640   32.9030   30.1140 C   0  0  0  0  0  0  0  0  0  0  0  0
   35.7710   34.1430   31.6480 C   0  0  0  0  0  0  0  0  0  0  0  0
   36.2260   35.5110   31.7460 C   0  0  0  0  0  0  0  0  0  0  0  0
   38.7510   40.0630   25.8720 N   0  0  0  0  0  0  0  0  0  0  0  0
   37.8200   40.4870   25.0980 N   0  0  0  0  0  0  0  0  0  0  0  0
   35.5190   37.6230   31.1410 N   0  0  0  0  0  0  0  0  0  0  0  0
   35.8080   39.3050   27.7840 C   0  0  0  0  0  0  0  0  0  0  0  0
   35.8420   38.8350   29.2020 C   0  0  0  0  0  0  0  0  0  0  0  0
  1 27  1  0
  2 20  1  0
  2 28  1  0
  3 14  2  0
  4  5  1  0
  6 12  1  0
  6  8  1  0
  7 17  1  0
  8 28  2  0
  8  3  1  0
  9 27  1  0
 11 21  1  0
 11  6  1  0
 13  4  1  0
 14  1  1  0
 15 19  2  0
 16  7  1  0
 16 13  1  0
 16 23  1  0
 18 11  1  0
 20 10  2  0
 21 26  1  0
 21  2  1  0
 22 17  1  0
 22 16  1  0
 22  7  1  0
 23 24  2  3
 23  5  1  0
 24 15  1  0
 25 20  1  0
 26 25  1  0
 27 15  1  0
 28 29  1  0
 29 14  1  0
 29  9  2  0
M  END
$$$$

     RDKit          3D

 20 20  0  0  0  0  0  0  0  0999 V2000
   38.2220   37.7110   32.3690 C   0  0  0  0  0  0  0  0  0  0  0  0
   37.9140   38.5590   31.3350 N   0  0  0  0  0  0  0  0  0  0  0  0
   36.1960   40.7260   28.5710 N   0  0  0  0  0  0  0  0  0  0  0  0
   37.8650   35.7980   30.9390 C   0  0  0  0  0  0  0  0  0  0  0  0
   40.5540   40.4120   31.9650 C   0  0  0  0  0  0  0  0  0  0  0  0
   40.5190   42.0890   33.7780 N   0  0  0  0  0  0  0  0  0  0  0  0
   39.6400   40.1870   30.8890 O   0  0  0  0  0  0  0  0  0  0  0  0
   40.0310   42.2080   29.9000 O   0  0  0  0  0  0  0  0  0  0  0  0
   39.8140   40.9360   33.2470 C   0  0  0  0  0  0  0  0  0  0  0  0
   37.4330   33.7770   29.7440 O   0  0  0  0  0  0  0  0  0  0  0  0
   37.3830   38.9070   29.1030 N   0  0  0  0  0  0  0  0  0  0  0  0
   38.0740   41.2230   29.6450 N   0  0  0  0  0  0  0  0  0  0  0  0
   37.6130   38.0650   30.0970 C   0  0  0  0  0  0  0  0  0  0  0  0
   37.6530   36.6800   29.8740 C   0  0  0  0  0  0  0  0  0  0  0  0
   37.6550   33.4490   31.9040 N   0  0  0  0  0  0  0  0  0  0  0  0
   39.3610   41.2050   30.1130 C   0  0  0  0  0  0  0  0  0  0  0  0
   37.6420   31.9940   31.7550 C   0  0  0  0  0  0  0  0  0  0  0  0
   37.7160   34.3030   30.8050 C   0  0  0  0  0  0  0  0  0  0  0  0
   38.1410   36.3420   32.1850 C   0  0  0  0  0  0  0  0  0  0  0  0
   37.3190   40.1770   29.1230 C   0  0  0  0  0  0  0  0  0  0  0  0
  2  1  1  0
  3 20  2  0
  4 19  1  0
  5  9  1  0
  7  5  1  0
  8 16  2  0
  9  6  1  0
 10 18  2  0
 11 20  1  0
 11 13  1  0
 12 16  1  0
 13  2  2  0
 14 13  1  0
 14  4  2  0
 16  7  1  0
 17 15  1  0
 18  4  1  0
 18 15  1  0
 19  1  2  0
 20 12  1  0
M  END
$$$$

     RDKit          3D

  6  6  0  0  0  0  0  0  0  0999 V2000
   39.7370   38.8400   27.6530 N   0  0  0  0  0  0  0  0  0  0  0  0
   38.5840   38.2660   27.5820 C   0  0  0  0  0  0  0  0  0  0  0  0
   40.0450   40.0840   28.3100 C   0  0  0  0  0  0  0  0  0  0  0  0
   37.8270   40.4970   27.3780 N   0  0  0  0  0  0  0  0  0  0  0  0
   39.3250   40.8740   27.2940 C   0  0  0  0  0  0  0  0  0  0  0  0
   37.2980   39.0370   27.6170 C   0  0  0  0  0  0  0  0  0  0  0  0
  1  3  1  0
  2  6  1  0
  2  1  1  0
  4  6  1  0
  5  4  1  0
  5  3  1  0
M  END
$$$$
