
     RDKit          3D

 11 10  0  0  0  0  0  0  0  0999 V2000
   38.4600   40.9810   26.9480 N   0  0  0  0  0  0  0  0  0  0  0  0
   34.3630   38.4950   30.6250 O   0  0  0  0  0  0  0  0  0  0  0  0
   35.6570   40.0770   29.2520 C   0  0  0  0  0  0  0  0  0  0  0  0
   39.7420   40.0420   24.5720 O   0  0  0  0  0  0  0  0  0  0  0  0
   37.0110   40.1060   28.5840 C   0  0  0  0  0  0  0  0  0  0  0  0
   39.4640   39.4490   25.5780 C   0  0  0  0  0  0  0  0  0  0  0  0
   36.4540   42.0310   27.0180 C   0  0  0  0  0  0  0  0  0  0  0  0
   37.3830   41.3510   27.8110 C   0  0  0  0  0  0  0  0  0  0  0  0
   35.4090   38.6420   29.7990 C   0  0  0  0  0  0  0  0  0  0  0  0
   35.5770   42.7050   26.8360 O   0  0  0  0  0  0  0  0  0  0  0  0
   38.6580   39.6490   26.6950 N   0  0  0  0  0  0  0  0  0  0  0  0
  1  8  1  0
  3  9  1  0
  4  6  2  0
  5  3  1  0
  6 11  1  0
  8  7  1  0
  8  5  1  0
  9  2  1  0
 10  7  2  0
 11  1  1  0
M  END
$$$$

     RDKit          3D

 14 15  0  0  0  0  0  0  0  0999 V2000
   37.5340   40.6560   29.1080 C   0  0  0  0  0  0  0  0  0  0  0  0
   37.2730   38.0390   29.3580 C   0  0  0  0  0  0  0  0  0  0  0  0
   39.0790   38.1770   27.6450 O   0  0  0  0  0  0  0  0  0  0  0  0
   36.2090   38.6530   29.9410 C   0  0  0  0  0  0  0  0  0  0  0  0
   36.0320   35.8280   30.5340 N   0  0  0  0  0  0  0  0  0  0  0  0
   35.8420   41.7310   27.6000 O   0  0  0  0  0  0  0  0  0  0  0  0
   38.1460   37.8810   28.4290 C   0  0  0  0  0  0  0  0  0  0  0  0
   38.1560   37.2650   29.4560 N   0  0  0  0  0  0  0  0  0  0  0  0
   35.5640   36.5930   31.4280 C   0  0  0  0  0  0  0  0  0  0  0  0
   36.7270   40.3950   27.9340 C   0  0  0  0  0  0  0  0  0  0  0  0
   37.1210   34.8320   30.5080 C   0  0  0  0  0  0  0  0  0  0  0  0
   38.4740   35.1740   31.0600 N   0  0  0  0  0  0  0  0  0  0  0  0
   36.1080   39.9320   29.0840 C   0  0  0  0  0  0  0  0  0  0  0  0
   35.0640   38.2020   31.0790 S   0  0  0  0  0  0  0  0  0  0  0  0
  2  8  1  0
  2  4  1  0
  3  7  2  0
  4 14  1  0
  5  9  1  0
  7  2  1  0
  7  8  1  0
 10  6  1  0
 10 13  1  0
 10  1  1  0
 11  5  1  0
 11 12  1  0
 13  1  1  0
 13  4  1  0
 14  9  1  0
M  END
$$$$

     RDKit          3D

 12 12  0  0  0  0  0  0  0  0999 V2000
   38.4300   36.9980   32.2860 O   0  0  0  0  0  0  0  0  0  0  0  0
   37.2840   36.7170   30.1860 C   0  0  0  0  0  0  0  0  0  0  0  0
   36.0050   36.6140   32.2720 C   0  0  0  0  0  0  0  0  0  0  0  0
   37.2100   37.1710   31.6110 C   0  0  0  0  0  0  0  0  0  0  0  0
   34.8300   34.6430   34.5200 C   0  0  0  0  0  0  0  0  0  0  0  0
   36.2260   34.8970   32.0210 S   0  0  0  0  0  0  0  0  0  0  0  0
   37.1140   35.3480   29.9560 C   0  0  0  0  0  0  0  0  0  0  0  0
   33.3670   36.6230   33.8500 C   0  0  0  0  0  0  0  0  0  0  0  0
   34.7030   36.1350   34.0140 C   0  0  0  0  0  0  0  0  0  0  0  0
   37.5880   34.5580   31.1690 C   0  0  0  0  0  0  0  0  0  0  0  0
   35.9320   36.7690   33.7370 N   0  0  0  0  0  0  0  0  0  0  0  0
   36.6910   37.6920   34.3260 C   0  0  0  0  0  0  0  0  0  0  0  0
  2  4  1  0
  3 11  1  0
  4  3  1  0
  4  1  1  0
  6  3  1  0
  7  2  1  0
  7 10  1  0
  8  9  1  0
  9  5  1  0
 10  6  1  0
 11  9  1  0
 11 12  1  0
M  END
$$$$

     RDKit          3D

  8  8  0  0  0  0  0  0  0  0999 V2000
   36.1920   35.1370   31.6280 N   0  0  0  0  0  0  0  0  0  0  0  0
   35.6040   36.9620   30.5510 N   0  0  0  0  0  0  0  0  0  0  0  0
   37.3460   37.3730   28.9540 C   0  0  0  0  0  0  0  0  0  0  0  0
   36.6550   36.4580   30.0580 C   0  0  0  0  0  0  0  0  0  0  0  0
   37.0090   35.2660   30.6280 C   0  0  0  0  0  0  0  0  0  0  0  0
   34.2610   36.5330   33.0810 Cl  0  0  0  0  0  0  0  0  0  0  0  0
   35.3540   36.1870   31.5980 C   0  0  0  0  0  0  0  0  0  0  0  0
   34.8260   38.3270   30.0050 C   0  0  0  0  0  0  0  0  0  0  0  0
  2  7  1  0
  3  4  1  0
  4  2  1  0
  4  5  2  0
  5  1  1  0
  7  1  2  0
  7  6  1  0
  8  2  1  0
M  END
$$$$

     RDKit          3D

 10 10  0  0  0  0  0  0  0  0999 V2000
   37.5090   41.6870   28.5560 O   0  0  0  0  0  0  0  0  0  0  0  0
   35.5880   37.9440   30.7880 O   0  0  0  0  0  0  0  0  0  0  0  0
   39.2060   40.7630   27.0730 O   0  0  0  0  0  0  0  0  0  0  0  0
   38.9590   39.4680   27.5660 C   0  0  0  0  0  0  0  0  0  0  0  0
   37.1780   40.5410   29.0260 C   0  0  0  0  0  0  0  0  0  0  0  0
   37.7090   39.2790   28.3270 C   0  0  0  0  0  0  0  0  0  0  0  0
   37.4530   38.3440   29.3860 N   0  0  0  0  0  0  0  0  0  0  0  0
   36.3420   38.6400   30.1920 C   0  0  0  0  0  0  0  0  0  0  0  0
   38.8740   38.6720   26.3960 O   0  0  0  0  0  0  0  0  0  0  0  0
   36.2380   40.1520   29.9420 C   0  0  0  0  0  0  0  0  0  0  0  0
  1  5  2  0
  3  4  1  0
  5 10  1  0
  6  4  1  0
  6  5  1  0
  6  7  1  0
  7  8  1  0
  8  2  2  0
  9  4  1  0
 10  8  1  0
M  END
$$$$

     RDKit          3D

 13 14  0  0  0  0  0  0  0  0999 V2000
   34.4410   38.5030   29.1820 O   0  0  0  0  0  0  0  0  0  0  0  0
   38.4260   42.4200   29.1710 O   0  0  0  0  0  0  0  0  0  0  0  0
   35.5990   38.9600   28.8960 C   0  0  0  0  0  0  0  0  0  0  0  0
   38.4800   40.6370   26.1700 C   0  0  0  0  0  0  0  0  0  0  0  0
   38.0920   42.2870   24.4090 C   0  0  0  0  0  0  0  0  0  0  0  0
   36.4200   38.3120   28.0550 N   0  0  0  0  0  0  0  0  0  0  0  0
   37.3120   40.4010   28.5690 C   0  0  0  0  0  0  0  0  0  0  0  0
   38.1800   41.4820   28.4170 C   0  0  0  0  0  0  0  0  0  0  0  0
   36.1160   40.2980   29.2360 C   0  0  0  0  0  0  0  0  0  0  0  0
   37.8190   41.1050   24.8690 C   0  0  0  0  0  0  0  0  0  0  0  0
   37.3950   39.2460   27.7130 C   0  0  0  0  0  0  0  0  0  0  0  0
   38.1160   39.3140   26.5500 C   0  0  0  0  0  0  0  0  0  0  0  0
   38.7250   41.6010   27.0930 N   0  0  0  0  0  0  0  0  0  0  0  0
  3  1  2  0
  3  9  1  0
  4 10  1  0
  4 12  1  0
  4 13  1  0
  5 10  2  0
  6  3  1  0
  7  9  1  0
  8  7  1  0
  8  2  2  0
 11 12  1  0
 11  6  1  0
 11  7  1  0
 13  8  1  0
M  END
$$$$

     RDKit          3D

  9  8  0  0  0  0  0  0  0  0999 V2000
   37.7790   40.7820   27.7640 C   0  0  0  0  0  0  0  0  0  0  0  0
   35.3830   40.8090   24.9750 F   0  0  0  0  0  0  0  0  0  0  0  0
   37.1970   40.1440   26.4540 C   0  0  0  0  0  0  0  0  0  0  0  0
   34.7620   39.6700   26.9080 O   0  0  0  0  0  0  0  0  0  0  0  0
   35.7460   40.6060   26.3420 C   0  0  0  0  0  0  0  0  0  0  0  0
   36.9160   40.3960   28.8150 O   0  0  0  0  0  0  0  0  0  0  0  0
   35.4480   42.0550   26.4680 C   0  0  0  0  0  0  0  0  0  0  0  0
   38.1890   40.2690   25.3210 C   0  0  0  0  0  0  0  0  0  0  0  0
   39.2540   40.5210   27.8750 C   0  0  0  0  0  0  0  0  0  0  0  0
  1  9  1  0
  1  6  1  0
  2  5  1  0
  3  8  1  0
  3  1  1  0
  5  3  1  0
  5  7  1  0
  5  4  1  0
M  END
$$$$

     RDKit          3D

 10  9  0  0  0  0  0  0  0  0999 V2000
   37.4320   39.5800   26.5610 C   0  0  0  0  0  0  0  0  0  0  0  0
   39.2540   39.9050   25.1100 O   0  0  0  0  0  0  0  0  0  0  0  0
   35.5760   40.3040   28.8830 O   0  0  0  0  0  0  0  0  0  0  0  0
   36.3180   37.0930   30.1320 O   0  0  0  0  0  0  0  0  0  0  0  0
   35.4440   37.9530   29.4980 C   0  0  0  0  0  0  0  0  0  0  0  0
   39.0520   39.0030   26.4150 C   0  0  0  0  0  0  0  0  0  0  0  0
   39.5170   38.2300   26.8690 O   0  0  0  0  0  0  0  0  0  0  0  0
   34.5740   38.2400   30.5420 O   0  0  0  0  0  0  0  0  0  0  0  0
   36.0350   39.0680   28.6860 C   0  0  0  0  0  0  0  0  0  0  0  0
   36.9380   38.6980   27.6200 N   0  0  0  0  0  0  0  0  0  0  0  0
  1 10  1  0
  2  6  2  0
  5  4  1  0
  5  8  1  0
  6  1  1  0
  6  7  1  0
  9  3  2  0
  9  5  1  0
 10  9  1  0
M  END
$$$$

     RDKit          3D

 14 14  0  0  0  0  0  0  0  0999 V2000
   37.0060   36.6110   30.4780 C   0  0  0  0  0  0  0  0  0  0  0  0
   34.8910   38.3850   29.9430 C   0  0  0  0  0  0  0  0  0  0  0  0
   37.3060   40.2820   28.2300 C   0  0  0  0  0  0  0  0  0  0  0  0
   40.9070   40.4750   25.5180 C   0  0  0  0  0  0  0  0  0  0  0  0
   38.0830   40.7150   27.1540 C   0  0  0  0  0  0  0  0  0  0  0  0
   36.0500   39.5460   28.1420 C   0  0  0  0  0  0  0  0  0  0  0  0
   37.7700   40.6820   29.4840 O   0  0  0  0  0  0  0  0  0  0  0  0
   41.4850   41.4470   27.7080 C   0  0  0  0  0  0  0  0  0  0  0  0
   40.3390   40.8260   26.7350 C   0  0  0  0  0  0  0  0  0  0  0  0
   36.0650   38.4950   29.2800 C   0  0  0  0  0  0  0  0  0  0  0  0
   35.7880   36.4640   31.1330 C   0  0  0  0  0  0  0  0  0  0  0  0
   34.7120   37.3590   30.8560 C   0  0  0  0  0  0  0  0  0  0  0  0
   37.1540   37.7120   29.5510 C   0  0  0  0  0  0  0  0  0  0  0  0
   39.4180   40.4080   27.4950 N   0  0  0  0  0  0  0  0  0  0  0  0
  1 11  1  0
  2 12  1  0
  3  7  1  0
  4  9  1  0
  5 14  1  0
  5  3  1  0
  6  3  1  0
  6 10  1  0
  9 14  1  0
  9  8  1  0
 10 13  1  0
 10  2  2  0
 12 11  2  0
 13  1  2  0
M  END
$$$$

     RDKit          3D

 19 21  0  0  0  0  0  0  0  0999 V2000
   34.5620   37.5240   30.0800 C   0  0  0  0  0  0  0  0  0  0  0  0
   33.4080   35.8660   31.4620 C   0  0  0  0  0  0  0  0  0  0  0  0
   39.1840   41.9430   26.7040 O   0  0  0  0  0  0  0  0  0  0  0  0
   36.2950   34.3680   29.8570 F   0  0  0  0  0  0  0  0  0  0  0  0
   34.4230   34.9570   31.1200 C   0  0  0  0  0  0  0  0  0  0  0  0
   34.5130   38.8680   29.4510 C   0  0  0  0  0  0  0  0  0  0  0  0
   35.4180   35.3420   30.2410 C   0  0  0  0  0  0  0  0  0  0  0  0
   35.5680   36.6090   29.7950 C   0  0  0  0  0  0  0  0  0  0  0  0
   38.6580   40.5800   27.1530 C   0  0  0  0  0  0  0  0  0  0  0  0
   37.3770   40.9300   26.4200 C   0  0  0  0  0  0  0  0  0  0  0  0
   37.2600   40.5330   25.0850 O   0  0  0  0  0  0  0  0  0  0  0  0
   32.4470   35.4660   32.3340 O   0  0  0  0  0  0  0  0  0  0  0  0
   35.8980   39.2720   29.1270 C   0  0  0  0  0  0  0  0  0  0  0  0
   36.3040   40.5570   27.3640 C   0  0  0  0  0  0  0  0  0  0  0  0
   33.5290   37.1750   30.9500 C   0  0  0  0  0  0  0  0  0  0  0  0
   34.3990   33.8120   31.7860 F   0  0  0  0  0  0  0  0  0  0  0  0
   40.0790   40.8800   27.1640 C   0  0  0  0  0  0  0  0  0  0  0  0
   36.7670   39.2750   27.9770 C   0  0  0  0  0  0  0  0  0  0  0  0
   38.2770   39.4200   28.0880 C   0  0  0  0  0  0  0  0  0  0  0  0
  1 15  1  0
  2 12  1  0
  3  9  1  0
  3 17  1  0
  4  7  1  0
  5  2  1  0
  5 16  1  0
  6  1  1  0
  7  5  2  0
  8  1  2  0
  8  7  1  0
  9 17  1  0
  9 19  1  0
 10 11  1  0
 10  9  1  0
 10 14  1  0
 13  6  1  0
 14 18  1  0
 15  2  2  0
 18 19  1  0
 18 13  1  0
M  END
$$$$

     RDKit          3D

 11 11  0  0  0  0  0  0  0  0999 V2000
   35.1800   38.0560   28.2990 S   0  0  0  0  0  0  0  0  0  0  0  0
   33.9620   37.7480   30.6160 N   0  0  0  0  0  0  0  0  0  0  0  0
   39.0960   38.8400   27.0120 C   0  0  0  0  0  0  0  0  0  0  0  0
   37.6270   38.4270   26.8870 C   0  0  0  0  0  0  0  0  0  0  0  0
   39.7240   38.3300   28.1730 O   0  0  0  0  0  0  0  0  0  0  0  0
   36.6920   38.7700   28.0340 C   0  0  0  0  0  0  0  0  0  0  0  0
   39.6670   40.2050   26.6030 C   0  0  0  0  0  0  0  0  0  0  0  0
   34.9730   38.3520   30.0130 C   0  0  0  0  0  0  0  0  0  0  0  0
   36.0050   39.1310   30.3810 C   0  0  0  0  0  0  0  0  0  0  0  0
   37.0690   39.4900   29.3470 C   0  0  0  0  0  0  0  0  0  0  0  0
   39.5390   41.0860   27.7140 O   0  0  0  0  0  0  0  0  0  0  0  0
  1  8  1  0
  3  5  1  0
  4  3  1  0
  4  6  1  0
  6  1  1  0
  6 10  2  0
  7  3  1  0
  7 11  1  0
  8  9  2  0
  8  2  1  0
 10  9  1  0
M  END
$$$$

     RDKit          3D

 10 10  0  0  0  0  0  0  0  0999 V2000
   34.9650   37.7370   30.2650 C   0  0  0  0  0  0  0  0  0  0  0  0
   36.9500   38.7950   27.1930 C   0  0  0  0  0  0  0  0  0  0  0  0
   35.9390   38.2000   29.2400 C   0  0  0  0  0  0  0  0  0  0  0  0
   35.3850   37.1050   31.2930 O   0  0  0  0  0  0  0  0  0  0  0  0
   38.2500   38.5020   27.6580 C   0  0  0  0  0  0  0  0  0  0  0  0
   38.3330   37.9420   28.9430 C   0  0  0  0  0  0  0  0  0  0  0  0
   39.5260   38.4100   27.1240 O   0  0  0  0  0  0  0  0  0  0  0  0
   35.8600   38.7490   28.0220 C   0  0  0  0  0  0  0  0  0  0  0  0
   33.8090   37.7250   30.3820 O   0  0  0  0  0  0  0  0  0  0  0  0
   37.1960   37.5520   29.5980 C   0  0  0  0  0  0  0  0  0  0  0  0
  1  9  2  0
  1  4  1  0
  2  5  2  0
  2  8  1  0
  3 10  1  0
  3  1  1  0
  5  6  1  0
  6 10  2  0
  7  5  1  0
  8  3  2  0
M  END
$$$$

     RDKit          3D

  7  7  0  0  0  0  0  0  0  0999 V2000
   36.7780   36.9320   30.5100 C   0  0  0  0  0  0  0  0  0  0  0  0
   34.8660   38.3170   30.2060 C   0  0  0  0  0  0  0  0  0  0  0  0
   35.4470   37.1860   30.7650 C   0  0  0  0  0  0  0  0  0  0  0  0
   35.6530   39.2250   29.5470 C   0  0  0  0  0  0  0  0  0  0  0  0
   37.5310   37.7430   29.6500 C   0  0  0  0  0  0  0  0  0  0  0  0
   35.1970   40.6480   29.2700 C   0  0  0  0  0  0  0  0  0  0  0  0
   36.9340   38.8780   29.1510 C   0  0  0  0  0  0  0  0  0  0  0  0
  1  3  1  0
  2  3  2  0
  4  2  1  0
  5  1  2  0
  6  4  1  0
  7  4  2  0
  7  5  1  0
M  END
$$$$

     RDKit          3D

 12 12  0  0  0  0  0  0  0  0999 V2000
   35.2590   34.8790   31.8410 C   0  0  0  0  0  0  0  0  0  0  0  0
   36.5570   36.1860   30.1990 N   0  0  0  0  0  0  0  0  0  0  0  0
   33.4170   37.3830   31.5970 C   0  0  0  0  0  0  0  0  0  0  0  0
   36.8130   37.1210   29.2380 C   0  0  0  0  0  0  0  0  0  0  0  0
   38.0420   37.1890   28.6270 N   0  0  0  0  0  0  0  0  0  0  0  0
   34.2840   34.8140   32.8440 C   0  0  0  0  0  0  0  0  0  0  0  0
   32.8490   36.8800   32.5600 O   0  0  0  0  0  0  0  0  0  0  0  0
   34.4760   37.0200   30.9000 C   0  0  0  0  0  0  0  0  0  0  0  0
   35.8110   37.7720   28.7360 O   0  0  0  0  0  0  0  0  0  0  0  0
   33.3610   35.7190   33.1710 C   0  0  0  0  0  0  0  0  0  0  0  0
   36.1320   33.8310   31.7080 N   0  0  0  0  0  0  0  0  0  0  0  0
   35.3730   35.9700   30.9890 C   0  0  0  0  0  0  0  0  0  0  0  0
  1  6  1  0
  2 12  1  0
  3  7  1  0
  4  2  1  0
  5  4  1  0
  6 10  2  0
  7 10  1  0
  8 12  1  0
  8  3  2  0
  9  4  2  0
 11  1  1  0
 12  1  2  0
M  END
$$$$

     RDKit          3D

  9 10  0  0  0  0  0  0  0  0999 V2000
   38.0130   39.6380   26.4920 C   0  0  0  0  0  0  0  0  0  0  0  0
   38.1090   41.8990   23.6260 O   0  0  0  0  0  0  0  0  0  0  0  0
   37.0650   40.6350   25.9540 C   0  0  0  0  0  0  0  0  0  0  0  0
   38.5990   40.8850   25.7720 C   0  0  0  0  0  0  0  0  0  0  0  0
   38.8770   40.8470   24.2630 C   0  0  0  0  0  0  0  0  0  0  0  0
   39.4040   39.0900   26.1160 C   0  0  0  0  0  0  0  0  0  0  0  0
   37.8240   39.5070   27.9220 O   0  0  0  0  0  0  0  0  0  0  0  0
   37.9720   42.1460   26.4110 C   0  0  0  0  0  0  0  0  0  0  0  0
   36.5180   41.5600   26.6130 O   0  0  0  0  0  0  0  0  0  0  0  0
  1  6  1  0
  1  7  1  0
  2  5  1  0
  3  1  1  0
  3  9  1  0
  4  5  1  0
  4  3  1  0
  4  8  1  0
  4  1  1  0
  8  9  1  0
M  END
$$$$

     RDKit          3D

  6  5  0  0  0  0  0  0  0  0999 V2000
   37.4690   38.7110   28.3030 C   0  0  0  0  0  0  0  0  0  0  0  0
   35.0160   38.6790   28.0410 C   0  0  0  0  0  0  0  0  0  0  0  0
   35.9230   37.9220   30.1860 C   0  0  0  0  0  0  0  0  0  0  0  0
   34.0730   37.6480   28.4680 O   0  0  0  0  0  0  0  0  0  0  0  0
   36.0800   38.5670   28.8390 C   0  0  0  0  0  0  0  0  0  0  0  0
   34.7940   39.4030   27.0860 O   0  0  0  0  0  0  0  0  0  0  0  0
  1  5  1  0
  2  4  1  0
  2  5  1  0
  5  3  1  0
  6  2  2  0
M  END
$$$$

     RDKit          3D

  9  8  0  0  0  0  0  0  0  0999 V2000
   36.6040   38.2260   28.8940 O   0  0  0  0  0  0  0  0  0  0  0  0
   37.7320   38.8720   29.0480 C   0  0  0  0  0  0  0  0  0  0  0  0
   38.5970   38.6300   27.8710 C   0  0  0  0  0  0  0  0  0  0  0  0
   34.7770   36.8670   30.6990 C   0  0  0  0  0  0  0  0  0  0  0  0
   34.5260   38.3380   30.3400 C   0  0  0  0  0  0  0  0  0  0  0  0
   35.7180   36.0240   30.1560 C   0  0  0  0  0  0  0  0  0  0  0  0
   33.6960   36.4060   31.3660 O   0  0  0  0  0  0  0  0  0  0  0  0
   35.4190   38.9720   29.2880 C   0  0  0  0  0  0  0  0  0  0  0  0
   38.2570   38.3770   26.5660 O   0  0  0  0  0  0  0  0  0  0  0  0
  1  2  1  0
  1  8  1  0
  3  2  1  0
  4  7  1  0
  5  4  1  0
  6  4  2  0
  8  5  2  3
  9  3  1  0
M  END
$$$$

     RDKit          3D

 13 13  0  0  0  0  0  0  0  0999 V2000
   35.7370   36.1750   30.8610 C   0  0  0  0  0  0  0  0  0  0  0  0
   36.3870   37.3660   30.2460 C   0  0  0  0  0  0  0  0  0  0  0  0
   37.5240   36.9870   29.7300 C   0  0  0  0  0  0  0  0  0  0  0  0
   39.0980   37.0900   27.8290 N   0  0  0  0  0  0  0  0  0  0  0  0
   36.0290   40.8300   27.0980 C   0  0  0  0  0  0  0  0  0  0  0  0
   35.3230   41.1840   25.8120 N   0  0  0  0  0  0  0  0  0  0  0  0
   35.5160   38.4080   30.3870 C   0  0  0  0  0  0  0  0  0  0  0  0
   34.4540   36.7850   31.3280 C   0  0  0  0  0  0  0  0  0  0  0  0
   36.5650   39.4360   26.7920 C   0  0  0  0  0  0  0  0  0  0  0  0
   37.2720   38.7260   27.8250 N   0  0  0  0  0  0  0  0  0  0  0  0
   34.3030   38.0610   30.8600 C   0  0  0  0  0  0  0  0  0  0  0  0
   38.5760   38.3320   27.3290 C   0  0  0  0  0  0  0  0  0  0  0  0
   38.3430   36.7590   28.8950 C   0  0  0  0  0  0  0  0  0  0  0  0
  1  8  1  0
  2  7  1  0
  2  1  1  0
  3  2  2  0
  4 13  1  0
  6  5  1  0
  7 11  1  0
  9  5  1  0
  9 10  1  0
 11  8  1  0
 12 10  1  0
 12  4  1  0
 13  3  2  0
M  END
$$$$

     RDKit          3D

 15 16  0  0  0  0  0  0  0  0999 V2000
   38.4520   36.9050   32.6480 C   0  0  0  0  0  0  0  0  0  0  0  0
   37.2290   38.3840   30.9800 C   0  0  0  0  0  0  0  0  0  0  0  0
   34.9510   36.4560   31.5170 C   0  0  0  0  0  0  0  0  0  0  0  0
   37.2590   37.2740   31.9240 C   0  0  0  0  0  0  0  0  0  0  0  0
   37.4820   40.8250   29.4990 C   0  0  0  0  0  0  0  0  0  0  0  0
   33.7250   34.9730   32.8600 C   0  0  0  0  0  0  0  0  0  0  0  0
   37.1110   39.8640   27.5020 C   0  0  0  0  0  0  0  0  0  0  0  0
   38.0840   39.5190   31.5350 C   0  0  0  0  0  0  0  0  0  0  0  0
   36.0690   36.5200   32.4190 C   0  0  0  0  0  0  0  0  0  0  0  0
   37.0530   40.9630   26.4670 C   0  0  0  0  0  0  0  0  0  0  0  0
   36.8220   35.6800   33.5830 C   0  0  0  0  0  0  0  0  0  0  0  0
   38.0860   36.3260   33.8080 N   0  0  0  0  0  0  0  0  0  0  0  0
   34.6990   35.8620   32.8620 C   0  0  0  0  0  0  0  0  0  0  0  0
   38.4660   40.5040   30.5250 C   0  0  0  0  0  0  0  0  0  0  0  0
   37.5330   39.5540   28.4000 C   0  0  0  0  0  0  0  0  0  0  0  0
  1 12  1  0
  2  8  1  0
  3 13  1  0
  4  2  1  0
  4  9  1  0
  4  1  1  0
  5 14  1  0
  7 15  1  0
  9  3  1  0
  9 13  1  0
  9 11  1  0
 10  7  1  0
 11 12  1  0
 13  6  1  0
 14  8  1  0
 15  5  1  0
M  END
$$$$

     RDKit          3D

 12 12  0  0  0  0  0  0  0  0999 V2000
   34.8440   37.3930   30.7200 N   0  0  0  0  0  0  0  0  0  0  0  0
   35.1360   36.3500   31.6650 C   0  0  0  0  0  0  0  0  0  0  0  0
   38.4170   35.3010   29.0120 O   0  0  0  0  0  0  0  0  0  0  0  0
   34.3500   36.1660   33.7700 C   0  0  0  0  0  0  0  0  0  0  0  0
   35.4550   37.0260   29.6020 N   0  0  0  0  0  0  0  0  0  0  0  0
   36.5760   36.2700   29.9800 C   0  0  0  0  0  0  0  0  0  0  0  0
   36.5410   35.9220   31.2790 C   0  0  0  0  0  0  0  0  0  0  0  0
   33.6380   35.4260   34.3710 O   0  0  0  0  0  0  0  0  0  0  0  0
   37.7790   36.4450   29.1280 N   0  0  0  0  0  0  0  0  0  0  0  0
   34.5250   35.2730   32.5070 C   0  0  0  0  0  0  0  0  0  0  0  0
   34.7940   37.4850   33.9480 O   0  0  0  0  0  0  0  0  0  0  0  0
   38.1150   37.4480   28.7130 O   0  0  0  0  0  0  0  0  0  0  0  0
  1  2  1  0
  2 10  1  0
  3  9  2  0
  4 11  2  0
  4  8  1  0
  5  6  1  0
  5  1  1  0
  6  9  1  0
  6  7  1  0
  7  2  1  0
 10  4  1  0
 12  9  2  0
M  END
$$$$
