
     RDKit          3D

 13 13  0  0  0  0  0  0  0  0999 V2000
   42.8410   43.2190   28.4850 C   0  0  0  0  0  0  0  0  0  0  0  0
   40.3890   40.3540   29.3560 C   0  0  0  0  0  0  0  0  0  0  0  0
   41.5010   40.4980   31.3890 C   0  0  0  0  0  0  0  0  0  0  0  0
   42.4310   41.8840   28.4710 O   0  0  0  0  0  0  0  0  0  0  0  0
   39.7800   38.1100   28.6500 O   0  0  0  0  0  0  0  0  0  0  0  0
   42.3010   41.8560   29.8410 C   0  0  0  0  0  0  0  0  0  0  0  0
   42.0480   42.1150   32.8690 O   0  0  0  0  0  0  0  0  0  0  0  0
   41.3230   40.9450   30.2570 N   0  0  0  0  0  0  0  0  0  0  0  0
   41.2210   39.1850   31.7720 C   0  0  0  0  0  0  0  0  0  0  0  0
   42.4630   41.1790   32.1540 O   0  0  0  0  0  0  0  0  0  0  0  0
   40.4950   38.3140   30.8740 C   0  0  0  0  0  0  0  0  0  0  0  0
   39.8100   39.0130   29.7920 C   0  0  0  0  0  0  0  0  0  0  0  0
   40.5140   37.0540   31.0480 O   0  0  0  0  0  0  0  0  0  0  0  0
  2 12  1  0
  2  8  1  0
  3  9  2  0
  3 10  1  0
  4  1  1  0
  4  6  1  0
  6  8  1  0
  8  3  1  0
 10  7  1  0
 11 13  2  0
 11  9  1  0
 12  5  1  0
 12 11  1  0
M  END
$$$$

     RDKit          3D

 13 13  0  0  0  0  0  0  0  0999 V2000
   40.1000   39.8810   31.7290 O   0  0  0  0  0  0  0  0  0  0  0  0
   41.4700   40.7350   36.0310 O   0  0  0  0  0  0  0  0  0  0  0  0
   41.9400   40.2490   34.9620 C   0  0  0  0  0  0  0  0  0  0  0  0
   40.1320   36.2760   31.0760 C   0  0  0  0  0  0  0  0  0  0  0  0
   41.4660   39.4660   32.3520 C   0  0  0  0  0  0  0  0  0  0  0  0
   38.8390   35.7840   31.0210 O   0  0  0  0  0  0  0  0  0  0  0  0
   41.1180   35.5690   30.8380 O   0  0  0  0  0  0  0  0  0  0  0  0
   40.2720   37.6150   31.6020 C   0  0  0  0  0  0  0  0  0  0  0  0
   41.3820   40.1790   33.6990 C   0  0  0  0  0  0  0  0  0  0  0  0
   37.9590   38.8000   31.1300 C   0  0  0  0  0  0  0  0  0  0  0  0
   39.4580   38.7390   31.3830 C   0  0  0  0  0  0  0  0  0  0  0  0
   41.3960   37.9790   32.3190 C   0  0  0  0  0  0  0  0  0  0  0  0
   43.1950   40.5510   34.5660 O   0  0  0  0  0  0  0  0  0  0  0  0
  1  5  1  0
  3  2  1  0
  4  8  1  0
  5  9  1  0
  6  4  1  0
  7  4  2  0
  8 12  2  0
  9  3  1  0
 11 10  1  0
 11  8  1  0
 11  1  1  0
 12  5  1  0
 13  3  2  0
M  END
$$$$

     RDKit          3D

  8  7  0  0  0  0  0  0  0  0999 V2000
   40.3920   39.0770   30.6140 C   0  0  0  0  0  0  0  0  0  0  0  0
   41.1210   41.0730   28.3860 C   0  0  0  0  0  0  0  0  0  0  0  0
   42.2210   39.0040   28.2590 O   0  0  0  0  0  0  0  0  0  0  0  0
   41.7460   40.0160   28.8840 C   0  0  0  0  0  0  0  0  0  0  0  0
   41.7080   39.7710   30.4160 C   0  0  0  0  0  0  0  0  0  0  0  0
   42.7560   38.8380   30.8380 O   0  0  0  0  0  0  0  0  0  0  0  0
   41.8780   40.9340   31.2200 O   0  0  0  0  0  0  0  0  0  0  0  0
   41.2080   41.6400   27.2730 O   0  0  0  0  0  0  0  0  0  0  0  0
  2  4  1  0
  3  4  2  0
  4  5  1  0
  5  1  1  0
  5  6  1  0
  5  7  1  0
  8  2  2  0
M  END
$$$$

     RDKit          3D

 13 14  0  0  0  0  0  0  0  0999 V2000
   41.1830   39.1960   29.4210 C   0  0  0  0  0  0  0  0  0  0  0  0
   40.7010   39.7920   30.5410 C   0  0  0  0  0  0  0  0  0  0  0  0
   41.0020   37.0020   30.6120 C   0  0  0  0  0  0  0  0  0  0  0  0
   38.7600   40.7020   31.3140 N   0  0  0  0  0  0  0  0  0  0  0  0
   40.4310   41.8220   29.3110 C   0  0  0  0  0  0  0  0  0  0  0  0
   41.6070   37.7400   29.3770 C   0  0  0  0  0  0  0  0  0  0  0  0
   40.7350   39.0830   31.7980 C   0  0  0  0  0  0  0  0  0  0  0  0
   40.4290   42.8590   30.3510 C   0  0  0  0  0  0  0  0  0  0  0  0
   41.4660   37.7860   31.8260 C   0  0  0  0  0  0  0  0  0  0  0  0
   41.7530   41.3400   28.9310 O   0  0  0  0  0  0  0  0  0  0  0  0
   39.6860   40.8180   30.1740 C   0  0  0  0  0  0  0  0  0  0  0  0
   42.3920   39.4040   27.5520 O   0  0  0  0  0  0  0  0  0  0  0  0
   41.5890   40.0150   28.4340 C   0  0  0  0  0  0  0  0  0  0  0  0
  1  6  1  0
  1  2  1  0
  2  7  1  0
  3  9  1  0
  5 11  1  0
  5  8  1  0
  6  3  1  0
  7  9  1  0
 10  5  1  0
 11  2  1  0
 11  4  1  0
 12 13  2  0
 13 10  1  0
 13  1  1  0
M  END
$$$$

     RDKit          3D

 14 16  0  0  0  0  0  0  0  0999 V2000
   41.9100   41.1340   30.4610 O   0  0  0  0  0  0  0  0  0  0  0  0
   42.1670   36.9850   30.6600 N   0  0  0  0  0  0  0  0  0  0  0  0
   39.5720   40.8510   30.6320 O   0  0  0  0  0  0  0  0  0  0  0  0
   41.1690   39.0090   30.4890 C   0  0  0  0  0  0  0  0  0  0  0  0
   40.2160   37.9380   30.6890 C   0  0  0  0  0  0  0  0  0  0  0  0
   41.8420   41.3310   28.1200 O   0  0  0  0  0  0  0  0  0  0  0  0
   38.8860   37.9110   30.4880 O   0  0  0  0  0  0  0  0  0  0  0  0
   41.5960   41.8110   29.3510 C   0  0  0  0  0  0  0  0  0  0  0  0
   42.3890   38.3430   30.4490 C   0  0  0  0  0  0  0  0  0  0  0  0
   40.7560   40.3800   30.8190 C   0  0  0  0  0  0  0  0  0  0  0  0
   40.8190   36.7530   30.9040 N   0  0  0  0  0  0  0  0  0  0  0  0
   40.0300   41.7120   31.4990 C   0  0  0  0  0  0  0  0  0  0  0  0
   40.4600   41.7370   28.3160 C   0  0  0  0  0  0  0  0  0  0  0  0
   40.1970   35.6650   31.6320 C   0  0  0  0  0  0  0  0  0  0  0  0
  2 11  1  0
  3 10  1  0
  3 12  1  0
  4  9  1  0
  4  5  1  0
  4 10  1  0
  5 11  1  0
  6 13  1  0
  6  8  1  0
  7  5  2  0
  8  1  1  0
  9  2  2  0
 10  1  1  0
 10 12  1  0
 11 14  1  0
 13  8  1  0
M  END
$$$$

     RDKit          3D

 22 25  0  0  0  0  0  0  0  0999 V2000
   41.4520   39.4740   32.6440 C   0  0  0  0  0  0  0  0  0  0  0  0
   37.2090   37.9140   31.0460 N   0  0  0  0  0  0  0  0  0  0  0  0
   39.5100   40.8530   32.3300 N   0  0  0  0  0  0  0  0  0  0  0  0
   40.0680   39.4810   32.2060 N   0  0  0  0  0  0  0  0  0  0  0  0
   39.2750   38.5000   31.7240 C   0  0  0  0  0  0  0  0  0  0  0  0
   37.4320   40.0990   30.7400 C   0  0  0  0  0  0  0  0  0  0  0  0
   38.5190   36.2170   31.2650 C   0  0  0  0  0  0  0  0  0  0  0  0
   41.6790   40.9520   32.2240 C   0  0  0  0  0  0  0  0  0  0  0  0
   38.6660   32.4870   30.5330 O   0  0  0  0  0  0  0  0  0  0  0  0
   37.0680   34.0880   31.1100 C   0  0  0  0  0  0  0  0  0  0  0  0
   37.2900   36.6940   31.0420 C   0  0  0  0  0  0  0  0  0  0  0  0
   39.5890   37.1440   31.6240 C   0  0  0  0  0  0  0  0  0  0  0  0
   39.3540   33.6730   30.7340 C   0  0  0  0  0  0  0  0  0  0  0  0
   37.2620   32.7330   30.5710 C   0  0  0  0  0  0  0  0  0  0  0  0
   38.9000   42.0180   31.4340 C   0  0  0  0  0  0  0  0  0  0  0  0
   41.4660   39.0760   34.0270 O   0  0  0  0  0  0  0  0  0  0  0  0
   37.6870   41.6790   30.8160 C   0  0  0  0  0  0  0  0  0  0  0  0
   40.6050   33.9110   30.7290 F   0  0  0  0  0  0  0  0  0  0  0  0
   38.0590   38.7980   31.2110 C   0  0  0  0  0  0  0  0  0  0  0  0
   38.3730   34.7340   30.9970 C   0  0  0  0  0  0  0  0  0  0  0  0
   40.6300   41.6320   32.9320 C   0  0  0  0  0  0  0  0  0  0  0  0
   42.9620   41.2610   32.3520 O   0  0  0  0  0  0  0  0  0  0  0  0
  1 16  1  0
  2 19  1  0
  3 15  1  0
  3 21  1  0
  4  3  1  0
  4  1  1  0
  5  4  1  0
  6 17  1  0
  6 19  1  0
  7 12  2  0
  8 22  1  0
  8  1  1  0
  8 21  1  0
  9 14  1  0
  9 13  1  0
 11  2  2  0
 11  7  1  0
 12  5  1  0
 13 20  2  0
 14 10  1  0
 17 15  1  0
 18 13  1  0
 19  5  2  0
 20 10  1  0
 20  7  1  0
M  END
$$$$

     RDKit          3D

 21 22  0  0  0  0  0  0  0  0999 V2000
   38.5640   39.7830   30.9520 C   0  0  0  0  0  0  0  0  0  0  0  0
   39.7310   39.4830   32.7290 C   0  0  0  0  0  0  0  0  0  0  0  0
   38.0370   40.5060   28.8580 C   0  0  0  0  0  0  0  0  0  0  0  0
   37.5070   31.9310   29.3660 C   0  0  0  0  0  0  0  0  0  0  0  0
   37.8730   28.5810   29.1060 C   0  0  0  0  0  0  0  0  0  0  0  0
   38.6010   37.7210   31.9190 N   0  0  0  0  0  0  0  0  0  0  0  0
   38.3270   29.7110   30.0310 C   0  0  0  0  0  0  0  0  0  0  0  0
   37.5730   37.9030   29.7490 C   0  0  0  0  0  0  0  0  0  0  0  0
   37.7200   35.4190   30.2020 C   0  0  0  0  0  0  0  0  0  0  0  0
   37.5960   39.1210   28.9110 O   0  0  0  0  0  0  0  0  0  0  0  0
   37.7630   33.0110   30.3230 C   0  0  0  0  0  0  0  0  0  0  0  0
   36.9260   34.1220   30.3090 C   0  0  0  0  0  0  0  0  0  0  0  0
   39.4990   38.1410   32.7540 C   0  0  0  0  0  0  0  0  0  0  0  0
   38.1950   41.7050   28.0980 O   0  0  0  0  0  0  0  0  0  0  0  0
   39.0590   40.0270   32.0400 N   0  0  0  0  0  0  0  0  0  0  0  0
   38.6810   40.8890   30.0930 C   0  0  0  0  0  0  0  0  0  0  0  0
   37.5260   30.6750   30.2410 C   0  0  0  0  0  0  0  0  0  0  0  0
   39.6400   42.4210   32.3330 C   0  0  0  0  0  0  0  0  0  0  0  0
   38.1960   38.4770   30.9270 C   0  0  0  0  0  0  0  0  0  0  0  0
   40.2400   40.9920   32.9080 C   0  0  0  0  0  0  0  0  0  0  0  0
   36.8540   36.5940   29.7700 C   0  0  0  0  0  0  0  0  0  0  0  0
  1 15  1  0
  2 13  1  0
  2 20  1  0
  3 10  1  0
  3 16  1  0
  4 17  1  0
  4 11  1  0
  5  7  1  0
  6 13  2  0
  7 17  1  0
  8 21  1  0
  8 19  1  0
  9 12  1  0
 10  8  1  0
 12 11  1  0
 14  3  2  0
 15  2  2  0
 16  1  1  0
 18 20  1  0
 19  1  2  0
 19  6  1  0
 21  9  1  0
M  END
$$$$

     RDKit          3D

 21 23  0  0  0  0  0  0  0  0999 V2000
   32.6950   36.9630   30.9830 C   0  0  0  0  0  0  0  0  0  0  0  0
   34.1300   36.8250   30.7630 C   0  0  0  0  0  0  0  0  0  0  0  0
   37.1920   38.1720   32.0470 C   0  0  0  0  0  0  0  0  0  0  0  0
   43.2800   39.5950   33.5000 C   0  0  0  0  0  0  0  0  0  0  0  0
   42.5610   38.7920   31.3700 C   0  0  0  0  0  0  0  0  0  0  0  0
   36.3650   37.2020   31.6650 C   0  0  0  0  0  0  0  0  0  0  0  0
   32.2670   34.8530   29.4860 C   0  0  0  0  0  0  0  0  0  0  0  0
   38.5180   36.1800   32.3730 C   0  0  0  0  0  0  0  0  0  0  0  0
   34.4610   35.8370   29.8570 O   0  0  0  0  0  0  0  0  0  0  0  0
   43.6730   38.8430   32.2450 C   0  0  0  0  0  0  0  0  0  0  0  0
   33.5850   34.7670   29.5860 C   0  0  0  0  0  0  0  0  0  0  0  0
   40.4210   38.3800   32.0310 N   0  0  0  0  0  0  0  0  0  0  0  0
   41.8390   39.6120   33.4080 N   0  0  0  0  0  0  0  0  0  0  0  0
   39.3730   38.3870   32.8110 C   0  0  0  0  0  0  0  0  0  0  0  0
   31.6630   36.1580   30.1110 C   0  0  0  0  0  0  0  0  0  0  0  0
   35.0650   37.8070   31.1750 C   0  0  0  0  0  0  0  0  0  0  0  0
   39.1570   39.2710   33.6210 O   0  0  0  0  0  0  0  0  0  0  0  0
   44.8110   38.2170   32.2570 N   0  0  0  0  0  0  0  0  0  0  0  0
   41.4990   39.0140   32.2580 C   0  0  0  0  0  0  0  0  0  0  0  0
   38.3360   37.5400   32.3680 N   0  0  0  0  0  0  0  0  0  0  0  0
   37.0000   35.5960   31.8750 S   0  0  0  0  0  0  0  0  0  0  0  0
  2  1  1  0
  2 16  1  0
  3 20  1  0
  5 10  1  0
  5 19  1  0
  6 21  1  0
  6  3  2  0
  7 11  1  0
  7 15  1  0
  9  2  1  0
 10 18  2  0
 10  4  1  0
 11  9  1  0
 12 19  1  0
 12 14  1  0
 13  4  1  0
 14 17  2  0
 15  1  1  0
 16  6  1  0
 19 13  2  0
 20  8  1  0
 20 14  1  0
 21  8  1  0
M  END
$$$$

     RDKit          3D

 13 13  0  0  0  0  0  0  0  0999 V2000
   38.6750   40.9080   30.8760 O   0  0  0  0  0  0  0  0  0  0  0  0
   40.0180   38.9470   30.6270 C   0  0  0  0  0  0  0  0  0  0  0  0
   40.8910   37.0620   29.5070 O   0  0  0  0  0  0  0  0  0  0  0  0
   44.4750   41.0880   31.3710 C   0  0  0  0  0  0  0  0  0  0  0  0
   42.6870   39.1420   31.1440 C   0  0  0  0  0  0  0  0  0  0  0  0
   39.8590   40.2860   30.8490 C   0  0  0  0  0  0  0  0  0  0  0  0
   42.1440   40.4080   31.6020 N   0  0  0  0  0  0  0  0  0  0  0  0
   40.9810   38.0290   30.1650 C   0  0  0  0  0  0  0  0  0  0  0  0
   38.7630   38.1910   30.7380 C   0  0  0  0  0  0  0  0  0  0  0  0
   40.9800   41.1170   31.2030 C   0  0  0  0  0  0  0  0  0  0  0  0
   43.2200   41.1540   32.3150 C   0  0  0  0  0  0  0  0  0  0  0  0
   42.1830   37.9140   30.7670 O   0  0  0  0  0  0  0  0  0  0  0  0
   40.8350   42.2030   31.7510 O   0  0  0  0  0  0  0  0  0  0  0  0
  2  9  1  0
  2  6  1  0
  3  8  2  0
  4 11  1  0
  5  7  1  0
  6  1  1  0
  6 10  1  0
  7 11  1  0
  8  2  1  0
  8 12  1  0
 10  7  1  0
 10 13  2  0
 12  5  1  0
M  END
$$$$

     RDKit          3D

 17 16  0  0  0  0  0  0  0  0999 V2000
   34.0600   33.0620   32.5330 C   0  0  0  0  0  0  0  0  0  0  0  0
   38.1020   35.8880   33.1090 C   0  0  0  0  0  0  0  0  0  0  0  0
   38.4580   37.3320   33.1820 C   0  0  0  0  0  0  0  0  0  0  0  0
   36.3030   34.2670   33.0060 C   0  0  0  0  0  0  0  0  0  0  0  0
   38.5750   33.5620   33.8170 O   0  0  0  0  0  0  0  0  0  0  0  0
   37.3020   33.3170   33.6260 C   0  0  0  0  0  0  0  0  0  0  0  0
   41.6920   40.6920   33.4470 O   0  0  0  0  0  0  0  0  0  0  0  0
   36.8750   32.2280   33.8680 O   0  0  0  0  0  0  0  0  0  0  0  0
   36.9660   35.3660   33.7510 C   0  0  0  0  0  0  0  0  0  0  0  0
   39.6810   39.9980   31.3950 O   0  0  0  0  0  0  0  0  0  0  0  0
   39.6910   39.7730   32.7330 C   0  0  0  0  0  0  0  0  0  0  0  0
   41.8220   38.9350   35.3900 O   0  0  0  0  0  0  0  0  0  0  0  0
   34.7790   34.2110   33.2260 C   0  0  0  0  0  0  0  0  0  0  0  0
   39.2290   37.4300   34.4930 C   0  0  0  0  0  0  0  0  0  0  0  0
   41.1750   39.4110   33.0970 C   0  0  0  0  0  0  0  0  0  0  0  0
   40.7100   37.1330   34.3000 C   0  0  0  0  0  0  0  0  0  0  0  0
   41.4590   38.4520   34.2140 C   0  0  0  0  0  0  0  0  0  0  0  0
  1 13  1  0
  2  3  1  0
  2  9  1  0
  3 14  1  0
  4 13  1  0
  4  6  1  0
  4  9  1  0
  6  5  2  0
  6  8  1  0
 10 11  1  0
 11 15  1  0
 15  7  1  0
 15 17  1  0
 16 14  1  0
 17 16  1  0
 17 12  1  0
M  END
$$$$

     RDKit          3D

 30 31  0  0  0  0  0  0  0  0999 V2000
   41.0510   37.0280   30.9060 C   0  0  0  0  0  0  0  0  0  0  0  0
   32.5780   33.0330   33.1820 C   0  0  0  0  0  0  0  0  0  0  0  0
   39.6780   37.1540   30.9880 N   0  0  0  0  0  0  0  0  0  0  0  0
   42.7580   46.4410   30.9080 C   0  0  0  0  0  0  0  0  0  0  0  0
   30.6670   30.4600   33.0710 C   0  0  0  0  0  0  0  0  0  0  0  0
   35.9850   34.8340   32.9720 C   0  0  0  0  0  0  0  0  0  0  0  0
   42.2420   42.9280   32.0540 C   0  0  0  0  0  0  0  0  0  0  0  0
   37.3720   37.4050   31.1910 C   0  0  0  0  0  0  0  0  0  0  0  0
   42.9200   45.0430   33.3400 C   0  0  0  0  0  0  0  0  0  0  0  0
   31.0580   29.3610   31.8900 C   0  0  0  0  0  0  0  0  0  0  0  0
   34.8110   34.2910   32.8650 C   0  0  0  0  0  0  0  0  0  0  0  0
   32.0480   30.6320   33.5770 C   0  0  0  0  0  0  0  0  0  0  0  0
   33.7330   33.7930   33.5110 N   0  0  0  0  0  0  0  0  0  0  0  0
   42.5860   40.3510   30.1310 N   0  0  0  0  0  0  0  0  0  0  0  0
   43.7110   42.6260   30.4790 C   0  0  0  0  0  0  0  0  0  0  0  0
   38.3620   35.4380   32.3510 C   0  0  0  0  0  0  0  0  0  0  0  0
   42.5610   45.4400   31.8940 C   0  0  0  0  0  0  0  0  0  0  0  0
   42.0730   46.9550   32.0310 C   0  0  0  0  0  0  0  0  0  0  0  0
   38.5170   36.3790   31.2430 C   0  0  0  0  0  0  0  0  0  0  0  0
   43.0460   41.5020   30.0900 C   0  0  0  0  0  0  0  0  0  0  0  0
   41.7950   38.0840   30.1510 C   0  0  0  0  0  0  0  0  0  0  0  0
   31.0880   30.1640   35.6010 O   0  0  0  0  0  0  0  0  0  0  0  0
   43.2900   42.5970   31.8510 O   0  0  0  0  0  0  0  0  0  0  0  0
   31.1730   29.8380   34.2240 C   0  0  0  0  0  0  0  0  0  0  0  0
   32.8050   31.6790   33.8920 C   0  0  0  0  0  0  0  0  0  0  0  0
   37.3180   34.5430   32.8790 C   0  0  0  0  0  0  0  0  0  0  0  0
   41.5100   39.6550   31.9230 O   0  0  0  0  0  0  0  0  0  0  0  0
   31.1870   28.5210   34.6610 O   0  0  0  0  0  0  0  0  0  0  0  0
   41.7910   39.4850   30.7350 C   0  0  0  0  0  0  0  0  0  0  0  0
   42.1870   44.1240   31.1690 C   0  0  0  0  0  0  0  0  0  0  0  0
  1  3  1  0
  2 13  1  0
  2 25  1  0
  3 19  1  0
  4 17  1  0
  4 18  1  0
  5 10  1  0
  5 12  1  0
  5 24  1  0
 11  6  1  0
 11 13  2  3
 12 25  1  0
 12 24  1  0
 14 29  1  0
 15 23  1  0
 16 26  1  0
 17 18  1  0
 17  9  1  0
 19  8  1  0
 19 16  1  0
 20 14  1  0
 20 15  1  0
 21 29  1  0
 21  1  1  0
 23  7  1  0
 24 28  1  0
 24 22  1  0
 26  6  1  0
 29 27  2  0
 30 17  1  0
 30  7  1  0
M  END
$$$$

     RDKit          3D

 29 32  0  0  0  0  0  0  0  0999 V2000
   32.9720   30.3810   34.5340 C   0  0  0  0  0  0  0  0  0  0  0  0
   36.2810   33.4070   32.5630 C   0  0  0  0  0  0  0  0  0  0  0  0
   34.3150   30.0300   34.1010 N   0  0  0  0  0  0  0  0  0  0  0  0
   44.6010   40.9380   31.7540 C   0  0  0  0  0  0  0  0  0  0  0  0
   41.8690   38.8040   31.0350 C   0  0  0  0  0  0  0  0  0  0  0  0
   38.4670   36.0940   32.7800 C   0  0  0  0  0  0  0  0  0  0  0  0
   37.5880   35.2990   31.8250 C   0  0  0  0  0  0  0  0  0  0  0  0
   41.2160   43.3340   31.0290 C   0  0  0  0  0  0  0  0  0  0  0  0
   37.4010   31.9580   30.9110 C   0  0  0  0  0  0  0  0  0  0  0  0
   43.3690   40.3830   31.1100 N   0  0  0  0  0  0  0  0  0  0  0  0
   41.3770   38.0130   29.8590 C   0  0  0  0  0  0  0  0  0  0  0  0
   36.8140   31.4450   29.6090 C   0  0  0  0  0  0  0  0  0  0  0  0
   42.1830   42.3380   31.6070 C   0  0  0  0  0  0  0  0  0  0  0  0
   42.2360   40.8420   31.4220 C   0  0  0  0  0  0  0  0  0  0  0  0
   40.8650   42.8740   32.3000 C   0  0  0  0  0  0  0  0  0  0  0  0
   36.1090   31.1330   32.9710 O   0  0  0  0  0  0  0  0  0  0  0  0
   38.8800   32.4800   30.4960 C   0  0  0  0  0  0  0  0  0  0  0  0
   33.3820   30.2090   35.8880 C   0  0  0  0  0  0  0  0  0  0  0  0
   39.6780   36.4640   32.0010 N   0  0  0  0  0  0  0  0  0  0  0  0
   34.7430   30.7100   32.9590 C   0  0  0  0  0  0  0  0  0  0  0  0
   36.3990   32.1880   31.9690 C   0  0  0  0  0  0  0  0  0  0  0  0
   40.0470   37.8360   32.5500 C   0  0  0  0  0  0  0  0  0  0  0  0
   38.9850   29.9040   31.6420 C   0  0  0  0  0  0  0  0  0  0  0  0
   39.6080   39.0810   31.7270 C   0  0  0  0  0  0  0  0  0  0  0  0
   38.6540   31.3120   31.4000 C   0  0  0  0  0  0  0  0  0  0  0  0
   34.8050   30.4070   35.4090 C   0  0  0  0  0  0  0  0  0  0  0  0
   41.0100   39.8970   31.5960 C   0  0  0  0  0  0  0  0  0  0  0  0
   43.2900   38.9930   31.3260 C   0  0  0  0  0  0  0  0  0  0  0  0
   36.8010   34.4320   32.6990 N   0  0  0  0  0  0  0  0  0  0  0  0
  1 18  1  0
  2 29  1  0
  3  1  1  0
  3 26  1  0
  5 11  1  0
  5 28  1  0
  5 27  1  0
  7 29  1  0
  7  6  1  0
  8 13  1  0
  8 15  1  0
  9 12  1  0
  9 25  1  0
  9 21  1  0
 10 28  1  0
 10 14  1  0
 10  4  1  0
 13 15  1  0
 14 27  1  0
 14 13  1  0
 17  9  1  0
 17 25  1  0
 19 22  1  0
 19  6  1  0
 20 16  1  0
 20  3  1  0
 21  2  1  0
 21 16  1  0
 24 22  1  0
 25 23  1  0
 26 18  1  0
 27 24  1  0
M  END
$$$$

     RDKit          3D

  8  7  0  0  0  0  0  0  0  0999 V2000
   43.7720   41.0960   30.7450 O   0  0  0  0  0  0  0  0  0  0  0  0
   41.9980   39.0270   30.4780 N   0  0  0  0  0  0  0  0  0  0  0  0
   40.9140   39.5740   31.3140 N   0  0  0  0  0  0  0  0  0  0  0  0
   43.5030   39.5810   30.3870 S   0  0  0  0  0  0  0  0  0  0  0  0
   41.0400   38.5610   30.3040 C   0  0  0  0  0  0  0  0  0  0  0  0
   43.9040   39.6630   29.1210 O   0  0  0  0  0  0  0  0  0  0  0  0
   40.5450   39.0870   28.9330 C   0  0  0  0  0  0  0  0  0  0  0  0
   44.1920   38.9030   31.0390 O   0  0  0  0  0  0  0  0  0  0  0  0
  4  2  1  0
  4  1  1  0
  4  8  1  0
  5  7  1  0
  5  2  1  0
  5  3  1  0
  6  4  1  0
M  END
$$$$

     RDKit          3D

 14 13  0  0  0  0  0  0  0  0999 V2000
   42.0080   37.1500   30.0990 P   0  0  0  0  0  0  0  0  0  0  0  0
   41.3830   35.7740   30.6900 O   0  0  0  0  0  0  0  0  0  0  0  0
   38.4320   39.1070   31.2180 C   0  0  0  0  0  0  0  0  0  0  0  0
   42.5530   37.3670   28.7470 O   0  0  0  0  0  0  0  0  0  0  0  0
   41.9600   39.3830   31.4460 C   0  0  0  0  0  0  0  0  0  0  0  0
   37.4980   38.7040   30.0820 C   0  0  0  0  0  0  0  0  0  0  0  0
   41.0640   38.5180   30.5380 C   0  0  0  0  0  0  0  0  0  0  0  0
   38.3080   40.1990   31.7850 O   0  0  0  0  0  0  0  0  0  0  0  0
   39.6900   38.2180   31.3710 C   0  0  0  0  0  0  0  0  0  0  0  0
   41.1280   40.0590   32.4340 C   0  0  0  0  0  0  0  0  0  0  0  0
   36.2150   38.2780   30.7580 C   0  0  0  0  0  0  0  0  0  0  0  0
   42.9610   41.0660   33.6460 C   0  0  0  0  0  0  0  0  0  0  0  0
   43.3710   37.1380   30.9860 O   0  0  0  0  0  0  0  0  0  0  0  0
   41.5140   41.0490   33.2070 C   0  0  0  0  0  0  0  0  0  0  0  0
  1  7  1  0
  1  2  1  0
  1 13  1  0
  3  9  1  0
  3  8  2  0
  4  1  2  0
  5 10  1  0
  6 11  1  0
  6  3  1  0
  7  9  1  0
  7  5  1  0
 10 14  1  0
 14 12  1  0
M  END
$$$$

     RDKit          3D

 11 12  0  0  0  0  0  0  0  0999 V2000
   41.1940   38.3400   28.4650 C   0  0  0  0  0  0  0  0  0  0  0  0
   41.8800   40.6340   32.5730 C   0  0  0  0  0  0  0  0  0  0  0  0
   41.3010   38.1180   30.9920 C   0  0  0  0  0  0  0  0  0  0  0  0
   41.8490   39.6650   28.8570 C   0  0  0  0  0  0  0  0  0  0  0  0
   41.4690   39.6120   31.3220 C   0  0  0  0  0  0  0  0  0  0  0  0
   41.2570   41.8160   32.2990 O   0  0  0  0  0  0  0  0  0  0  0  0
   39.8470   40.8080   29.4430 O   0  0  0  0  0  0  0  0  0  0  0  0
   42.7140   38.6370   31.1940 C   0  0  0  0  0  0  0  0  0  0  0  0
   41.1420   40.4580   30.0090 C   0  0  0  0  0  0  0  0  0  0  0  0
   42.2000   40.5430   27.8700 O   0  0  0  0  0  0  0  0  0  0  0  0
   41.0780   37.3680   29.6730 C   0  0  0  0  0  0  0  0  0  0  0  0
  1  4  1  0
  1 11  1  0
  3 11  1  0
  3  8  1  0
  3  5  1  0
  4 10  1  0
  4  9  1  0
  5  2  1  0
  6  2  1  0
  8  5  1  0
  9  7  1  0
  9  5  1  0
M  END
$$$$

     RDKit          3D

  7  7  0  0  0  0  0  0  0  0999 V2000
   40.5740   38.2370   29.9050 N   0  0  0  0  0  0  0  0  0  0  0  0
   40.3820   36.8530   29.9140 C   0  0  0  0  0  0  0  0  0  0  0  0
   39.0610   40.1660   29.9320 O   0  0  0  0  0  0  0  0  0  0  0  0
   39.0180   38.8000   29.9870 C   0  0  0  0  0  0  0  0  0  0  0  0
   41.4550   38.8890   30.8290 C   0  0  0  0  0  0  0  0  0  0  0  0
   37.1780   38.0440   30.3480 S   0  0  0  0  0  0  0  0  0  0  0  0
   41.9780   38.3870   29.4190 N   0  0  0  0  0  0  0  0  0  0  0  0
  1  2  1  0
  1  4  1  0
  1  5  1  0
  3  4  2  0
  4  6  1  0
  7  1  1  0
  7  5  1  0
M  END
$$$$

     RDKit          3D

 12 12  0  0  0  0  0  0  0  0999 V2000
   39.3600   35.9970   32.7110 C   0  0  0  0  0  0  0  0  0  0  0  0
   41.2600   37.1290   33.7650 C   0  0  0  0  0  0  0  0  0  0  0  0
   37.2990   34.1910   34.4240 C   0  0  0  0  0  0  0  0  0  0  0  0
   37.5030   35.4160   33.8670 C   0  0  0  0  0  0  0  0  0  0  0  0
   36.4680   36.0660   33.2750 C   0  0  0  0  0  0  0  0  0  0  0  0
   40.5550   36.7560   32.6320 N   0  0  0  0  0  0  0  0  0  0  0  0
   35.0350   34.2120   33.7850 C   0  0  0  0  0  0  0  0  0  0  0  0
   38.7940   35.9440   33.9460 O   0  0  0  0  0  0  0  0  0  0  0  0
   35.2360   35.4630   33.2310 C   0  0  0  0  0  0  0  0  0  0  0  0
   38.8120   35.4640   31.7410 O   0  0  0  0  0  0  0  0  0  0  0  0
   36.0490   33.6000   34.3820 C   0  0  0  0  0  0  0  0  0  0  0  0
   40.5040   38.0350   34.3940 O   0  0  0  0  0  0  0  0  0  0  0  0
  1  8  1  0
  2 12  1  0
  4  8  1  0
  4  3  2  0
  5  4  1  0
  6  1  1  0
  6  2  1  0
  7 11  2  0
  9  5  2  0
  9  7  1  0
 10  1  2  0
 11  3  1  0
M  END
$$$$

     RDKit          3D

 15 16  0  0  0  0  0  0  0  0999 V2000
   41.0960   38.6330   30.6460 C   0  0  0  0  0  0  0  0  0  0  0  0
   39.0850   35.6070   31.3980 C   0  0  0  0  0  0  0  0  0  0  0  0
   40.2020   37.8510   31.3130 C   0  0  0  0  0  0  0  0  0  0  0  0
   36.4980   35.0270   31.6020 C   0  0  0  0  0  0  0  0  0  0  0  0
   38.4280   35.9940   32.7120 C   0  0  0  0  0  0  0  0  0  0  0  0
   39.4600   34.2640   31.2280 O   0  0  0  0  0  0  0  0  0  0  0  0
   40.1560   36.5090   30.9920 C   0  0  0  0  0  0  0  0  0  0  0  0
   42.3030   36.5630   30.0410 C   0  0  0  0  0  0  0  0  0  0  0  0
   34.4860   34.0610   30.8340 O   0  0  0  0  0  0  0  0  0  0  0  0
   35.2850   35.1230   30.7610 C   0  0  0  0  0  0  0  0  0  0  0  0
   37.6800   35.8760   31.3900 C   0  0  0  0  0  0  0  0  0  0  0  0
   40.7860   40.0870   30.7260 C   0  0  0  0  0  0  0  0  0  0  0  0
   41.3210   35.9430   30.5200 C   0  0  0  0  0  0  0  0  0  0  0  0
   42.0730   38.0080   29.8580 C   0  0  0  0  0  0  0  0  0  0  0  0
   35.1210   36.1120   30.1690 O   0  0  0  0  0  0  0  0  0  0  0  0
  1 12  1  0
  1  3  2  0
  2  6  1  0
  2  5  1  0
  7 13  1  0
  7  3  1  0
  7  2  1  0
  8 13  1  0
 10  9  1  0
 10  4  1  0
 11  2  1  0
 11  4  1  0
 11  5  1  0
 14  8  1  0
 14  1  1  0
 15 10  2  0
M  END
$$$$

     RDKit          3D

 14 15  0  0  0  0  0  0  0  0999 V2000
   41.4540   39.2560   27.7260 S   0  0  0  0  0  0  0  0  0  0  0  0
   37.4090   39.9570   28.8720 S   0  0  0  0  0  0  0  0  0  0  0  0
   40.6570   39.0860   31.3470 S   0  0  0  0  0  0  0  0  0  0  0  0
   37.8230   39.6120   27.3120 C   0  0  0  0  0  0  0  0  0  0  0  0
   42.8020   38.4730   28.6780 C   0  0  0  0  0  0  0  0  0  0  0  0
   39.4350   39.4710   30.1800 C   0  0  0  0  0  0  0  0  0  0  0  0
   41.4620   40.2440   31.5430 O   0  0  0  0  0  0  0  0  0  0  0  0
   40.9390   37.8600   30.0060 C   0  0  0  0  0  0  0  0  0  0  0  0
   40.1070   36.5790   30.2580 C   0  0  0  0  0  0  0  0  0  0  0  0
   40.2280   38.4420   32.6110 O   0  0  0  0  0  0  0  0  0  0  0  0
   37.7580   41.5240   29.1940 C   0  0  0  0  0  0  0  0  0  0  0  0
   38.0740   39.0950   30.0210 C   0  0  0  0  0  0  0  0  0  0  0  0
   42.3470   37.6890   29.7590 C   0  0  0  0  0  0  0  0  0  0  0  0
   40.3090   38.8980   29.0480 C   0  0  0  0  0  0  0  0  0  0  0  0
  1  5  1  0
  2 11  1  0
  2 12  1  0
  3  7  2  0
  3 10  2  0
  4  2  1  0
  5 13  1  0
  6 12  1  0
  6  3  1  0
  8  9  1  0
  8  3  1  0
 13  8  1  0
 14  1  1  0
 14  8  1  0
 14  6  1  0
M  END
$$$$

     RDKit          3D

 21 22  0  0  0  0  0  0  0  0999 V2000
   34.8640   36.9810   31.3300 O   0  0  0  0  0  0  0  0  0  0  0  0
   42.2310   39.1710   31.3740 C   0  0  0  0  0  0  0  0  0  0  0  0
   42.7550   37.8560   30.9160 C   0  0  0  0  0  0  0  0  0  0  0  0
   35.6650   36.0490   31.4580 C   0  0  0  0  0  0  0  0  0  0  0  0
   34.1700   32.6640   31.8190 O   0  0  0  0  0  0  0  0  0  0  0  0
   37.1050   36.2470   31.5450 N   0  0  0  0  0  0  0  0  0  0  0  0
   36.3260   33.8060   31.8960 C   0  0  0  0  0  0  0  0  0  0  0  0
   35.3320   34.7240   31.6820 C   0  0  0  0  0  0  0  0  0  0  0  0
   40.1550   40.0150   32.4190 N   0  0  0  0  0  0  0  0  0  0  0  0
   41.4240   36.7220   30.9420 S   0  0  0  0  0  0  0  0  0  0  0  0
   40.2160   37.8230   31.5710 C   0  0  0  0  0  0  0  0  0  0  0  0
   42.9320   40.3700   31.3270 C   0  0  0  0  0  0  0  0  0  0  0  0
   38.8060   37.7400   31.7100 C   0  0  0  0  0  0  0  0  0  0  0  0
   40.8670   39.0160   31.8090 C   0  0  0  0  0  0  0  0  0  0  0  0
   37.3240   32.8840   31.7790 C   0  0  0  0  0  0  0  0  0  0  0  0
   40.7650   40.8570   33.4070 C   0  0  0  0  0  0  0  0  0  0  0  0
   41.8920   41.7480   33.0920 C   0  0  0  0  0  0  0  0  0  0  0  0
   33.9830   34.1350   31.8420 C   0  0  0  0  0  0  0  0  0  0  0  0
   37.4740   37.6620   31.5260 C   0  0  0  0  0  0  0  0  0  0  0  0
   33.0120   35.2730   31.8820 N   0  0  0  0  0  0  0  0  0  0  0  0
   42.4240   41.7740   31.7240 C   0  0  0  0  0  0  0  0  0  0  0  0
  1  4  2  0
  2 14  1  0
  3 10  1  0
  3  2  2  0
  4  6  1  0
  4  8  1  0
  5 18  2  0
  8 18  1  0
  8  7  1  0
  9 16  1  0
 10 11  1  0
 11 13  1  0
 11 14  2  0
 12  2  1  0
 12 21  1  0
 14  9  1  0
 15  7  1  0
 17 16  2  0
 18 20  1  0
 19  6  1  0
 19 13  1  0
 21 17  1  0
M  END
$$$$
