
     RDKit          3D

  8  7  0  0  0  0  0  0  0  0999 V2000
   37.4950   31.4490   36.0850 N   0  0  0  0  0  0  0  0  0  0  0  0
   38.7840   35.6910   34.9160 C   0  0  0  0  0  0  0  0  0  0  0  0
   38.6050   34.3230   34.3170 C   0  0  0  0  0  0  0  0  0  0  0  0
   39.8860   34.1320   33.5150 C   0  0  0  0  0  0  0  0  0  0  0  0
   38.2350   33.3330   35.2790 N   0  0  0  0  0  0  0  0  0  0  0  0
   36.9160   32.8050   35.5810 C   0  0  0  0  0  0  0  0  0  0  0  0
   39.5330   36.0130   35.8240 N   0  0  0  0  0  0  0  0  0  0  0  0
   35.4970   33.1720   36.9270 Br  0  0  0  0  0  0  0  0  0  0  0  0
  2  7  2  0
  3  4  1  0
  3  2  1  0
  3  5  1  0
  5  6  1  0
  6  1  1  0
  6  8  1  0
M  END
$$$$

     RDKit          3D

 13 12  0  0  0  0  0  0  0  0999 V2000
   38.6860   34.2470   32.7240 C   0  0  0  0  0  0  0  0  0  0  0  0
   38.6290   35.4250   33.6890 C   0  0  0  0  0  0  0  0  0  0  0  0
   36.1570   34.6700   32.6180 C   0  0  0  0  0  0  0  0  0  0  0  0
   35.4010   37.2880   32.3530 C   0  0  0  0  0  0  0  0  0  0  0  0
   38.0590   34.9760   35.0270 C   0  0  0  0  0  0  0  0  0  0  0  0
   42.2860   37.9500   35.7570 O   0  0  0  0  0  0  0  0  0  0  0  0
   41.7030   37.0820   35.2890 C   0  0  0  0  0  0  0  0  0  0  0  0
   40.1160   35.9280   33.8240 C   0  0  0  0  0  0  0  0  0  0  0  0
   40.2860   38.3440   34.1260 O   0  0  0  0  0  0  0  0  0  0  0  0
   40.3120   37.0810   34.7210 C   0  0  0  0  0  0  0  0  0  0  0  0
   42.1440   35.6420   35.5440 O   0  0  0  0  0  0  0  0  0  0  0  0
   36.4850   36.2420   32.5980 C   0  0  0  0  0  0  0  0  0  0  0  0
   37.8590   36.6460   33.1160 C   0  0  0  0  0  0  0  0  0  0  0  0
  1  2  1  0
  2  8  1  0
  2  5  1  0
  4 12  1  0
  7 11  2  0
  7  6  1  0
  8 10  1  0
 10  9  1  0
 10  7  1  0
 12  3  1  0
 12 13  1  0
 13  2  1  0
M  END
$$$$

     RDKit          3D

 15 17  0  0  0  0  0  0  0  0999 V2000
   40.6850   36.4240   36.5590 C   0  0  0  0  0  0  0  0  0  0  0  0
   37.7360   34.1620   34.8850 C   0  0  0  0  0  0  0  0  0  0  0  0
   42.8340   39.6950   35.8390 C   0  0  0  0  0  0  0  0  0  0  0  0
   36.6050   33.6390   35.5150 C   0  0  0  0  0  0  0  0  0  0  0  0
   42.0070   38.6860   35.0540 C   0  0  0  0  0  0  0  0  0  0  0  0
   35.6640   32.3580   37.1200 C   0  0  0  0  0  0  0  0  0  0  0  0
   39.0880   34.3300   34.7560 C   0  0  0  0  0  0  0  0  0  0  0  0
   41.3980   37.4660   34.4690 C   0  0  0  0  0  0  0  0  0  0  0  0
   41.7990   38.8850   36.6800 C   0  0  0  0  0  0  0  0  0  0  0  0
   40.7090   36.4710   35.0440 C   0  0  0  0  0  0  0  0  0  0  0  0
   41.3580   37.5790   37.3000 C   0  0  0  0  0  0  0  0  0  0  0  0
   39.9080   35.5050   34.1520 C   0  0  0  0  0  0  0  0  0  0  0  0
   36.7450   33.0960   36.7070 N   0  0  0  0  0  0  0  0  0  0  0  0
   35.1070   33.8160   35.3820 C   0  0  0  0  0  0  0  0  0  0  0  0
   34.6950   32.5180   36.0090 C   0  0  0  0  0  0  0  0  0  0  0  0
  1 11  1  0
  2  4  2  3
  3  9  1  0
  4 13  1  0
  5  3  1  0
  5  9  1  0
  7  2  1  0
  8 10  1  0
  8  5  2  0
  9 11  2  0
 10  1  2  0
 12  7  1  0
 12 10  1  0
 13  6  1  0
 14  4  1  0
 14 15  1  0
 15  6  1  0
M  END
$$$$

     RDKit          3D

 12 13  0  0  0  0  0  0  0  0999 V2000
   41.7050   37.6910   33.6710 C   0  0  0  0  0  0  0  0  0  0  0  0
   38.2600   33.0550   36.4070 C   0  0  0  0  0  0  0  0  0  0  0  0
   39.6260   36.8420   34.6010 C   0  0  0  0  0  0  0  0  0  0  0  0
   37.5390   33.5050   35.2550 N   0  0  0  0  0  0  0  0  0  0  0  0
   39.7070   34.5090   35.1840 N   0  0  0  0  0  0  0  0  0  0  0  0
   40.3310   35.6560   34.8480 C   0  0  0  0  0  0  0  0  0  0  0  0
   42.3520   36.6460   34.1820 C   0  0  0  0  0  0  0  0  0  0  0  0
   36.1050   33.0000   35.5250 C   0  0  0  0  0  0  0  0  0  0  0  0
   42.2150   38.7390   32.9090 N   0  0  0  0  0  0  0  0  0  0  0  0
   41.7080   35.5670   34.7350 C   0  0  0  0  0  0  0  0  0  0  0  0
   38.5820   34.3960   35.8620 C   0  0  0  0  0  0  0  0  0  0  0  0
   40.3540   38.0270   34.2170 C   0  0  0  0  0  0  0  0  0  0  0  0
  1  9  1  0
  1  7  1  0
  1 12  1  0
  3  6  2  0
  4  8  1  0
  4 11  1  0
  4  2  1  0
  6  5  1  0
  7 10  2  0
 10  6  1  0
 11  5  1  0
 11  2  1  0
 12  3  1  0
M  END
$$$$

     RDKit          3D

 34 34  0  0  0  0  0  0  0  0999 V2000
   36.9980   34.0800   32.7410 C   0  0  0  0  0  0  0  0  0  0  0  0
   40.5720   33.5910   32.0660 C   0  0  0  0  0  0  0  0  0  0  0  0
   35.6750   31.2430   34.8080 C   0  0  0  0  0  0  0  0  0  0  0  0
   39.5010   40.0940   29.1320 C   0  0  0  0  0  0  0  0  0  0  0  0
   32.9600   29.0580   34.9750 C   0  0  0  0  0  0  0  0  0  0  0  0
   38.3660   31.8190   32.5160 C   0  0  0  0  0  0  0  0  0  0  0  0
   36.3390   35.3780   33.3430 C   0  0  0  0  0  0  0  0  0  0  0  0
   34.4560   29.2370   35.0880 C   0  0  0  0  0  0  0  0  0  0  0  0
   42.7560   39.6170   28.0170 O   0  0  0  0  0  0  0  0  0  0  0  0
   39.1180   41.9570   27.6260 C   0  0  0  0  0  0  0  0  0  0  0  0
   42.7660   40.9180   28.3580 C   0  0  0  0  0  0  0  0  0  0  0  0
   38.2750   33.3060   32.5190 C   0  0  0  0  0  0  0  0  0  0  0  0
   38.4720   38.7870   31.3270 C   0  0  0  0  0  0  0  0  0  0  0  0
   34.9760   28.7720   36.3510 O   0  0  0  0  0  0  0  0  0  0  0  0
   41.6860   44.6740   27.6190 C   0  0  0  0  0  0  0  0  0  0  0  0
   35.0340   28.9870   33.7130 C   0  0  0  0  0  0  0  0  0  0  0  0
   34.3330   30.7880   35.3800 C   0  0  0  0  0  0  0  0  0  0  0  0
   38.0720   37.5500   30.9510 N   0  0  0  0  0  0  0  0  0  0  0  0
   38.0250   38.9310   32.4090 O   0  0  0  0  0  0  0  0  0  0  0  0
   36.0890   33.2530   33.6080 C   0  0  0  0  0  0  0  0  0  0  0  0
   40.1930   40.9300   28.0950 C   0  0  0  0  0  0  0  0  0  0  0  0
   36.4540   36.5140   32.4530 C   0  0  0  0  0  0  0  0  0  0  0  0
   43.9130   41.5840   28.3000 O   0  0  0  0  0  0  0  0  0  0  0  0
   40.2810   32.5080   31.8500 O   0  0  0  0  0  0  0  0  0  0  0  0
   39.4880   33.9910   32.5550 N   0  0  0  0  0  0  0  0  0  0  0  0
   41.4780   43.1700   27.6840 C   0  0  0  0  0  0  0  0  0  0  0  0
   41.6660   34.2380   31.7700 N   0  0  0  0  0  0  0  0  0  0  0  0
   35.7660   31.8940   33.4250 C   0  0  0  0  0  0  0  0  0  0  0  0
   39.0700   44.2510   26.6540 C   0  0  0  0  0  0  0  0  0  0  0  0
   42.8480   43.8400   27.6940 C   0  0  0  0  0  0  0  0  0  0  0  0
   37.9430   36.5800   32.0390 C   0  0  0  0  0  0  0  0  0  0  0  0
   39.5610   43.1050   27.0100 C   0  0  0  0  0  0  0  0  0  0  0  0
   38.9830   39.8140   30.3060 C   0  0  0  0  0  0  0  0  0  0  0  0
   41.5290   41.6860   28.2140 C   0  0  0  0  0  0  0  0  0  0  0  0
  1  7  1  0
  1 20  1  0
  2 25  1  0
  3 17  1  0
  4 33  1  0
  5  8  1  0
  8 17  1  0
  8 14  1  0
  9 11  2  0
 12  6  1  0
 12 25  1  0
 12  1  1  0
 13 19  2  0
 15 26  1  0
 15 30  1  0
 16  8  1  0
 18 13  1  0
 18 31  1  0
 21 10  1  0
 21 34  1  0
 21  4  1  0
 22  7  1  0
 23 11  1  0
 24  2  2  0
 26 30  1  0
 26 34  1  0
 27  2  1  0
 28 20  1  0
 28  3  1  0
 29 32  2  0
 31 22  1  0
 32 10  1  0
 33 13  1  0
 34 11  1  0
M  END
$$$$

     RDKit          3D

 19 21  0  0  0  0  0  0  0  0999 V2000
   34.4170   35.9830   32.4900 N   0  0  0  0  0  0  0  0  0  0  0  0
   40.1020   38.7740   33.1570 O   0  0  0  0  0  0  0  0  0  0  0  0
   39.0170   37.0520   33.0580 N   0  0  0  0  0  0  0  0  0  0  0  0
   42.3470   38.0250   32.5220 C   0  0  0  0  0  0  0  0  0  0  0  0
   42.0790   38.4940   31.0630 C   0  0  0  0  0  0  0  0  0  0  0  0
   35.5070   36.4810   32.6720 C   0  0  0  0  0  0  0  0  0  0  0  0
   37.7790   37.5340   32.9590 C   0  0  0  0  0  0  0  0  0  0  0  0
   41.8770   40.0030   31.2370 N   0  0  0  0  0  0  0  0  0  0  0  0
   41.0450   38.6180   29.9050 C   0  0  0  0  0  0  0  0  0  0  0  0
   40.6940   40.0420   30.1320 C   0  0  0  0  0  0  0  0  0  0  0  0
   43.7570   37.5380   32.6500 C   0  0  0  0  0  0  0  0  0  0  0  0
   44.3010   37.6730   31.2450 C   0  0  0  0  0  0  0  0  0  0  0  0
   43.0830   37.5300   30.3280 C   0  0  0  0  0  0  0  0  0  0  0  0
   40.1360   37.5670   32.5380 C   0  0  0  0  0  0  0  0  0  0  0  0
   36.5720   35.9130   34.2170 N   0  0  0  0  0  0  0  0  0  0  0  0
   35.0560   38.1300   31.4920 C   0  0  0  0  0  0  0  0  0  0  0  0
   41.3970   36.9090   32.8030 C   0  0  0  0  0  0  0  0  0  0  0  0
   34.6030   36.8690   31.8150 C   0  0  0  0  0  0  0  0  0  0  0  0
   36.6290   36.6360   33.1990 C   0  0  0  0  0  0  0  0  0  0  0  0
  1  6  1  0
  4 11  1  0
  4 17  1  0
  5  9  1  0
  5  8  1  0
  5  4  1  0
  6 19  2  3
  7  3  1  0
  7 19  1  0
  9 10  1  0
 10  8  1  0
 12 11  1  0
 13  5  1  0
 13 12  1  0
 14 17  1  0
 14  3  1  0
 14  2  1  0
 18 16  1  0
 18  1  1  0
 18  6  1  0
 19 15  1  0
M  END
$$$$

     RDKit          3D

 29 31  0  0  0  0  0  0  0  0999 V2000
   37.3060   34.6580   32.2470 C   0  0  0  0  0  0  0  0  0  0  0  0
   42.1130   38.9340   31.5210 C   0  0  0  0  0  0  0  0  0  0  0  0
   35.7960   34.4980   32.1380 C   0  0  0  0  0  0  0  0  0  0  0  0
   39.1760   36.3560   32.3490 N   0  0  0  0  0  0  0  0  0  0  0  0
   35.1300   33.3290   32.9470 C   0  0  0  0  0  0  0  0  0  0  0  0
   40.2350   37.3660   31.8740 C   0  0  0  0  0  0  0  0  0  0  0  0
   35.1190   40.2710   28.5590 C   0  0  0  0  0  0  0  0  0  0  0  0
   44.1330   37.4450   31.2820 N   0  0  0  0  0  0  0  0  0  0  0  0
   40.7780   37.8530   33.1980 N   0  0  0  0  0  0  0  0  0  0  0  0
   33.9300   35.0010   31.0740 O   0  0  0  0  0  0  0  0  0  0  0  0
   35.2150   37.7070   29.9190 C   0  0  0  0  0  0  0  0  0  0  0  0
   34.8230   30.6890   33.1530 C   0  0  0  0  0  0  0  0  0  0  0  0
   37.0650   36.8620   31.2790 N   0  0  0  0  0  0  0  0  0  0  0  0
   33.9080   37.4150   29.5510 C   0  0  0  0  0  0  0  0  0  0  0  0
   34.8320   39.0700   29.0820 C   0  0  0  0  0  0  0  0  0  0  0  0
   42.0900   36.6930   30.3910 O   0  0  0  0  0  0  0  0  0  0  0  0
   33.5470   38.5300   28.7920 C   0  0  0  0  0  0  0  0  0  0  0  0
   35.1190   35.3180   31.3440 C   0  0  0  0  0  0  0  0  0  0  0  0
   34.4800   40.1060   27.3670 O   0  0  0  0  0  0  0  0  0  0  0  0
   43.4570   36.9600   30.0580 C   0  0  0  0  0  0  0  0  0  0  0  0
   45.4410   37.6030   31.9520 C   0  0  0  0  0  0  0  0  0  0  0  0
   33.5710   33.5590   33.2840 C   0  0  0  0  0  0  0  0  0  0  0  0
   39.2680   38.3030   31.4010 O   0  0  0  0  0  0  0  0  0  0  0  0
   33.0420   36.5710   29.5720 O   0  0  0  0  0  0  0  0  0  0  0  0
   35.2650   31.9280   32.2730 C   0  0  0  0  0  0  0  0  0  0  0  0
   43.5760   38.7910   31.5970 C   0  0  0  0  0  0  0  0  0  0  0  0
   35.7810   36.6170   30.8650 C   0  0  0  0  0  0  0  0  0  0  0  0
   37.8660   36.0040   31.9850 C   0  0  0  0  0  0  0  0  0  0  0  0
   41.3750   37.8410   30.7590 C   0  0  0  0  0  0  0  0  0  0  0  0
  2 26  1  0
  3  1  1  0
  3  5  1  0
  5 22  1  0
  6 23  1  0
  6  4  1  0
  6  9  1  0
  8 26  1  0
  8 21  1  0
 10 18  2  0
 11 14  1  0
 11 27  1  0
 13 28  2  0
 14 24  2  0
 15  7  1  0
 15 11  1  0
 16 29  1  0
 17 15  1  0
 17 14  1  0
 18  3  1  0
 19  7  1  0
 20 16  1  0
 20  8  1  0
 25  5  1  0
 25 12  1  0
 27 13  1  0
 27 18  1  0
 28  1  1  0
 28  4  1  0
 29  2  1  0
 29  6  1  0
M  END
$$$$

     RDKit          3D

  7  6  0  0  0  0  0  0  0  0999 V2000
   38.4600   36.4450   33.5740 C   0  0  0  0  0  0  0  0  0  0  0  0
   40.7290   36.9580   32.8230 C   0  0  0  0  0  0  0  0  0  0  0  0
   37.6220   36.5410   34.4830 O   0  0  0  0  0  0  0  0  0  0  0  0
   38.5410   35.4180   32.8540 O   0  0  0  0  0  0  0  0  0  0  0  0
   39.4460   37.4820   33.3170 C   0  0  0  0  0  0  0  0  0  0  0  0
   41.9090   37.8870   33.4800 N   0  0  0  0  0  0  0  0  0  0  0  0
   41.9740   38.9700   32.4470 C   0  0  0  0  0  0  0  0  0  0  0  0
  1  3  1  0
  2  5  1  0
  2  6  1  0
  4  1  2  0
  5  1  1  0
  7  6  1  0
M  END
$$$$

     RDKit          3D

 14 15  0  0  0  0  0  0  0  0999 V2000
   40.4510   38.2340   33.4810 C   0  0  0  0  0  0  0  0  0  0  0  0
   38.9480   35.1600   34.4250 C   0  0  0  0  0  0  0  0  0  0  0  0
   37.1230   33.0050   34.6490 C   0  0  0  0  0  0  0  0  0  0  0  0
   39.8320   36.9160   33.2340 C   0  0  0  0  0  0  0  0  0  0  0  0
   39.9270   36.0230   34.3940 C   0  0  0  0  0  0  0  0  0  0  0  0
   41.9960   38.1520   33.5550 C   0  0  0  0  0  0  0  0  0  0  0  0
   39.0840   34.3580   35.4930 C   0  0  0  0  0  0  0  0  0  0  0  0
   39.9120   39.2210   32.4800 C   0  0  0  0  0  0  0  0  0  0  0  0
   35.5400   33.1620   36.1200 N   0  0  0  0  0  0  0  0  0  0  0  0
   36.7490   32.9950   36.4210 N   0  0  0  0  0  0  0  0  0  0  0  0
   37.8070   33.4290   35.5870 C   0  0  0  0  0  0  0  0  0  0  0  0
   40.2350   34.6440   36.0370 N   0  0  0  0  0  0  0  0  0  0  0  0
   35.7950   33.1600   34.7950 C   0  0  0  0  0  0  0  0  0  0  0  0
   40.8060   35.6690   35.4780 C   0  0  0  0  0  0  0  0  0  0  0  0
  1  6  1  0
  3 13  1  0
  4  1  1  0
  4  5  1  0
  5  2  2  0
  5 14  1  0
  7  2  1  0
  7 11  1  0
  7 12  1  0
  8  1  1  0
  9 10  1  0
 11  3  1  0
 11 10  1  0
 13  9  1  0
 14 12  2  0
M  END
$$$$

     RDKit          3D

 14 16  0  0  0  0  0  0  0  0999 V2000
   38.6390   33.9590   35.2150 C   0  0  0  0  0  0  0  0  0  0  0  0
   39.7200   34.8530   34.7570 C   0  0  0  0  0  0  0  0  0  0  0  0
   34.5670   34.1090   34.1130 C   0  0  0  0  0  0  0  0  0  0  0  0
   39.7340   36.6430   33.2540 O   0  0  0  0  0  0  0  0  0  0  0  0
   37.6470   31.8430   35.7680 C   0  0  0  0  0  0  0  0  0  0  0  0
   37.8770   35.3630   33.4240 C   0  0  0  0  0  0  0  0  0  0  0  0
   37.5860   34.2290   34.2400 N   0  0  0  0  0  0  0  0  0  0  0  0
   36.8170   33.4260   34.2410 C   0  0  0  0  0  0  0  0  0  0  0  0
   39.2820   35.2820   33.4200 C   0  0  0  0  0  0  0  0  0  0  0  0
   38.8020   32.6100   35.4060 O   0  0  0  0  0  0  0  0  0  0  0  0
   35.5520   33.3550   34.9510 C   0  0  0  0  0  0  0  0  0  0  0  0
   37.3790   30.8870   36.8290 C   0  0  0  0  0  0  0  0  0  0  0  0
   36.7050   32.7420   35.3010 N   0  0  0  0  0  0  0  0  0  0  0  0
   34.8720   33.1860   36.2210 O   0  0  0  0  0  0  0  0  0  0  0  0
  1  2  1  0
  1 10  1  0
  3 11  1  0
  4  9  1  0
  5 12  1  0
  7  6  1  0
  7  8  1  0
  7  1  1  0
  8 11  1  0
  8 13  1  0
  9  6  1  0
  9  2  1  0
 10  5  1  0
 11 13  1  0
 11 14  1  0
 13  5  1  0
M  END
$$$$

     RDKit          3D

  8  7  0  0  0  0  0  0  0  0999 V2000
   41.5610   35.7780   34.7780 C   0  0  0  0  0  0  0  0  0  0  0  0
   39.5000   34.5120   34.9760 C   0  0  0  0  0  0  0  0  0  0  0  0
   40.5970   35.2620   35.8290 C   0  0  0  0  0  0  0  0  0  0  0  0
   40.2380   37.7080   34.1000 O   0  0  0  0  0  0  0  0  0  0  0  0
   38.4340   35.3330   34.4420 C   0  0  0  0  0  0  0  0  0  0  0  0
   42.5130   36.8310   35.4400 C   0  0  0  0  0  0  0  0  0  0  0  0
   37.7120   33.9890   33.7480 C   0  0  0  0  0  0  0  0  0  0  0  0
   40.8090   36.3710   33.6550 C   0  0  0  0  0  0  0  0  0  0  0  0
  1  6  1  0
  1  3  1  0
  2  3  1  0
  5  2  1  0
  7  5  1  0
  8  4  1  0
  8  1  1  0
M  END
$$$$

     RDKit          3D

  6  5  0  0  0  0  0  0  0  0999 V2000
   43.4150   38.8340   33.4690 C   0  0  0  0  0  0  0  0  0  0  0  0
   43.1980   37.4950   31.4530 C   0  0  0  0  0  0  0  0  0  0  0  0
   42.7040   39.6750   32.3800 C   0  0  0  0  0  0  0  0  0  0  0  0
   41.9580   36.7140   31.5630 N   0  0  0  0  0  0  0  0  0  0  0  0
   43.0140   38.8700   31.9530 C   0  0  0  0  0  0  0  0  0  0  0  0
   41.2050   40.1250   31.5140 S   0  0  0  0  0  0  0  0  0  0  0  0
  2  4  1  0
  2  5  1  0
  3  1  1  0
  5  3  1  0
  6  3  1  0
M  END
$$$$

     RDKit          3D

 17 18  0  0  0  0  0  0  0  0999 V2000
   39.3620   35.3650   34.4300 C   0  0  0  0  0  0  0  0  0  0  0  0
   36.2640   32.1030   35.7690 C   0  0  0  0  0  0  0  0  0  0  0  0
   44.7890   38.4150   32.9430 O   0  0  0  0  0  0  0  0  0  0  0  0
   41.6210   36.0280   34.2230 N   0  0  0  0  0  0  0  0  0  0  0  0
   40.7910   35.1260   33.9490 C   0  0  0  0  0  0  0  0  0  0  0  0
   41.5110   38.2840   33.6360 N   0  0  0  0  0  0  0  0  0  0  0  0
   37.4290   31.1790   35.9480 N   0  0  0  0  0  0  0  0  0  0  0  0
   39.0450   34.3180   35.4330 C   0  0  0  0  0  0  0  0  0  0  0  0
   43.4110   37.5390   34.8830 C   0  0  0  0  0  0  0  0  0  0  0  0
   38.3520   33.0570   34.8240 C   0  0  0  0  0  0  0  0  0  0  0  0
   42.5690   39.1820   33.3280 C   0  0  0  0  0  0  0  0  0  0  0  0
   38.4620   31.6390   34.9610 C   0  0  0  0  0  0  0  0  0  0  0  0
   36.8570   33.4080   35.3760 C   0  0  0  0  0  0  0  0  0  0  0  0
   42.0730   37.2650   34.3000 C   0  0  0  0  0  0  0  0  0  0  0  0
   44.1160   36.7720   36.0130 C   0  0  0  0  0  0  0  0  0  0  0  0
   43.8780   38.4090   33.7510 C   0  0  0  0  0  0  0  0  0  0  0  0
   34.9580   32.2410   36.4080 C   0  0  0  0  0  0  0  0  0  0  0  0
  1  8  1  0
  2  7  1  0
  2 17  1  0
  3 16  2  0
  4 14  1  0
  5  4  1  0
  5  1  1  0
  6 14  2  0
  9 15  1  0
 10 12  1  0
 10 13  1  0
 10  8  1  0
 11  6  1  0
 11 16  1  0
 12  7  1  0
 13  2  1  0
 14  9  1  0
 16  9  1  0
M  END
$$$$

     RDKit          3D

 14 13  0  0  0  0  0  0  0  0999 V2000
   36.5150   33.0540   36.7440 N   0  0  0  0  0  0  0  0  0  0  0  0
   34.5300   34.0970   35.2540 C   0  0  0  0  0  0  0  0  0  0  0  0
   38.5290   34.1040   35.4510 C   0  0  0  0  0  0  0  0  0  0  0  0
   41.0510   35.7030   33.0340 C   0  0  0  0  0  0  0  0  0  0  0  0
   39.7490   37.9110   32.9980 C   0  0  0  0  0  0  0  0  0  0  0  0
   37.7760   33.0510   36.0930 C   0  0  0  0  0  0  0  0  0  0  0  0
   35.9810   32.3110   37.9050 C   0  0  0  0  0  0  0  0  0  0  0  0
   35.0950   31.1710   35.6060 C   0  0  0  0  0  0  0  0  0  0  0  0
   38.3630   35.2790   35.9100 O   0  0  0  0  0  0  0  0  0  0  0  0
   35.3010   32.7670   35.7150 C   0  0  0  0  0  0  0  0  0  0  0  0
   41.8710   37.5780   31.6220 C   0  0  0  0  0  0  0  0  0  0  0  0
   39.7980   34.9900   33.4770 N   0  0  0  0  0  0  0  0  0  0  0  0
   40.5450   36.9080   32.1430 C   0  0  0  0  0  0  0  0  0  0  0  0
   39.6220   33.8460   34.4110 C   0  0  0  0  0  0  0  0  0  0  0  0
  1  7  1  0
  2 10  1  0
  3  9  2  0
  3  6  1  0
  4 12  1  0
  6  1  1  0
  8 10  1  0
 10  1  1  0
 11 13  1  0
 12 14  1  0
 13  5  1  0
 13  4  1  0
 14  3  1  0
M  END
$$$$

     RDKit          3D

 12 15  0  0  0  0  0  0  0  0999 V2000
   38.8890   36.2030   32.9790 C   0  0  0  0  0  0  0  0  0  0  0  0
   40.1420   38.0050   34.6050 C   0  0  0  0  0  0  0  0  0  0  0  0
   40.5220   36.3970   36.1470 N   0  0  0  0  0  0  0  0  0  0  0  0
   38.9910   35.5120   37.8090 O   0  0  0  0  0  0  0  0  0  0  0  0
   40.1400   34.4260   34.0210 C   0  0  0  0  0  0  0  0  0  0  0  0
   40.7660   37.8090   36.0090 C   0  0  0  0  0  0  0  0  0  0  0  0
   39.4940   36.6650   31.7210 O   0  0  0  0  0  0  0  0  0  0  0  0
   38.8280   34.6960   33.2880 C   0  0  0  0  0  0  0  0  0  0  0  0
   39.4640   36.2700   37.0610 C   0  0  0  0  0  0  0  0  0  0  0  0
   39.8370   36.7730   34.0560 C   0  0  0  0  0  0  0  0  0  0  0  0
   40.3430   35.6410   34.9380 C   0  0  0  0  0  0  0  0  0  0  0  0
   39.9990   37.6160   37.2970 C   0  0  0  0  0  0  0  0  0  0  0  0
  1  7  1  0
  1  8  1  0
  1 10  1  0
  3  9  1  0
  3 12  1  0
  6  2  1  0
  6  3  1  0
  6 12  1  0
  8  5  1  0
  9  4  2  0
 10  2  1  0
 10 11  1  0
 11  5  1  0
 11  3  1  0
 12  9  1  0
M  END
$$$$

     RDKit          3D

 20 21  0  0  0  0  0  0  0  0999 V2000
   34.6870   33.0570   36.0430 C   0  0  0  0  0  0  0  0  0  0  0  0
   34.8780   32.1150   36.9560 C   0  0  0  0  0  0  0  0  0  0  0  0
   40.1120   37.0140   32.8790 C   0  0  0  0  0  0  0  0  0  0  0  0
   40.3980   38.3760   32.3660 C   0  0  0  0  0  0  0  0  0  0  0  0
   44.0770   38.8260   30.4550 N   0  0  0  0  0  0  0  0  0  0  0  0
   43.3840   37.7010   30.1660 C   0  0  0  0  0  0  0  0  0  0  0  0
   36.4110   31.4090   36.8380 C   0  0  0  0  0  0  0  0  0  0  0  0
   42.0140   38.3750   32.0100 C   0  0  0  0  0  0  0  0  0  0  0  0
   42.5370   37.3630   31.2350 C   0  0  0  0  0  0  0  0  0  0  0  0
   34.2660   31.2550   37.5450 O   0  0  0  0  0  0  0  0  0  0  0  0
   37.1290   32.6160   36.8730 C   0  0  0  0  0  0  0  0  0  0  0  0
   39.9770   34.7640   33.3150 C   0  0  0  0  0  0  0  0  0  0  0  0
   43.7870   39.7380   31.2000 C   0  0  0  0  0  0  0  0  0  0  0  0
   38.9400   35.5050   33.8720 C   0  0  0  0  0  0  0  0  0  0  0  0
   37.6570   35.0180   33.9520 C   0  0  0  0  0  0  0  0  0  0  0  0
   40.7250   35.6510   32.3860 C   0  0  0  0  0  0  0  0  0  0  0  0
   36.9270   33.5670   35.6920 C   0  0  0  0  0  0  0  0  0  0  0  0
   39.0290   36.8220   33.7660 O   0  0  0  0  0  0  0  0  0  0  0  0
   37.6840   33.7960   34.8630 N   0  0  0  0  0  0  0  0  0  0  0  0
   42.6030   39.6690   31.9810 C   0  0  0  0  0  0  0  0  0  0  0  0
  1  2  1  0
  2 10  2  0
  3  4  1  0
  3 18  1  0
  5 13  2  0
  6  5  1  0
  6  9  1  0
  7 11  1  0
  7  2  1  0
  8  4  1  0
  9  8  1  0
 12 14  1  0
 13 20  1  0
 14 15  1  0
 15 19  1  0
 16  3  1  0
 16 12  1  0
 17 11  1  0
 18 14  1  0
 19 17  2  3
 20  8  1  0
M  END
$$$$

     RDKit          3D

 10 10  0  0  0  0  0  0  0  0999 V2000
   41.2990   36.3480   31.1080 O   0  0  0  0  0  0  0  0  0  0  0  0
   41.8010   36.1460   32.2560 C   0  0  0  0  0  0  0  0  0  0  0  0
   40.1750   35.3100   35.2970 C   0  0  0  0  0  0  0  0  0  0  0  0
   42.7600   35.3750   32.3920 O   0  0  0  0  0  0  0  0  0  0  0  0
   41.7300   36.8130   34.7620 C   0  0  0  0  0  0  0  0  0  0  0  0
   39.9490   35.4860   33.8060 C   0  0  0  0  0  0  0  0  0  0  0  0
   42.5190   38.1180   34.8570 C   0  0  0  0  0  0  0  0  0  0  0  0
   40.9630   36.5770   33.4460 C   0  0  0  0  0  0  0  0  0  0  0  0
   40.8070   36.4160   37.2070 C   0  0  0  0  0  0  0  0  0  0  0  0
   40.6010   36.6620   35.8000 C   0  0  0  0  0  0  0  0  0  0  0  0
  1  2  2  0
  2  4  1  0
  3 10  1  0
  5  7  1  0
  5 10  1  0
  6  3  1  0
  8  2  1  0
  8  6  1  0
  8  5  1  0
 10  9  1  0
M  END
$$$$

     RDKit          3D

 11 11  0  0  0  0  0  0  0  0999 V2000
   40.1860   36.0840   35.2720 C   0  0  0  0  0  0  0  0  0  0  0  0
   38.0450   33.9860   33.6070 N   0  0  0  0  0  0  0  0  0  0  0  0
   40.8800   35.9250   34.1060 C   0  0  0  0  0  0  0  0  0  0  0  0
   40.6300   36.4590   36.6450 C   0  0  0  0  0  0  0  0  0  0  0  0
   42.7340   38.4110   35.8370 N   0  0  0  0  0  0  0  0  0  0  0  0
   38.9160   35.0580   33.8410 C   0  0  0  0  0  0  0  0  0  0  0  0
   40.1280   35.2960   33.2540 N   0  0  0  0  0  0  0  0  0  0  0  0
   40.7420   37.8660   37.2380 C   0  0  0  0  0  0  0  0  0  0  0  0
   38.9410   35.7550   34.9950 N   0  0  0  0  0  0  0  0  0  0  0  0
   42.2240   38.2370   37.2010 C   0  0  0  0  0  0  0  0  0  0  0  0
   41.9320   38.7800   34.6710 C   0  0  0  0  0  0  0  0  0  0  0  0
  1  4  1  0
  2  6  1  0
  3  1  1  0
  4  8  1  0
  5 10  1  0
  6  9  1  0
  7  6  2  0
  7  3  1  0
  9  1  1  0
 10  8  1  0
 11  5  1  0
M  END
$$$$

     RDKit          3D

 11 12  0  0  0  0  0  0  0  0999 V2000
   42.2260   38.8100   33.0610 C   0  0  0  0  0  0  0  0  0  0  0  0
   44.8790   40.2000   29.6250 O   0  0  0  0  0  0  0  0  0  0  0  0
   42.2350   39.7870   32.5680 C   0  0  0  0  0  0  0  0  0  0  0  0
   44.0210   38.6830   31.2490 C   0  0  0  0  0  0  0  0  0  0  0  0
   42.8070   39.2660   29.5260 O   0  0  0  0  0  0  0  0  0  0  0  0
   41.8820   37.7340   32.2460 O   0  0  0  0  0  0  0  0  0  0  0  0
   44.1670   39.0940   30.0180 C   0  0  0  0  0  0  0  0  0  0  0  0
   42.8860   37.6090   33.0830 C   0  0  0  0  0  0  0  0  0  0  0  0
   43.8020   39.7930   32.1420 O   0  0  0  0  0  0  0  0  0  0  0  0
   44.3110   37.7170   32.3780 C   0  0  0  0  0  0  0  0  0  0  0  0
   41.1210   39.7630   33.5430 C   0  0  0  0  0  0  0  0  0  0  0  0
  1  6  1  0
  1  8  1  0
  2  7  1  0
  3  1  1  0
  3 11  1  0
  4  7  1  0
  4  9  1  0
  4 10  1  0
  5  7  1  0
  6  8  1  0
  8 10  1  0
  9  3  1  0
M  END
$$$$

     RDKit          3D

 24 25  0  0  0  0  0  0  0  0999 V2000
   38.5870   35.6740   33.8540 C   0  0  0  0  0  0  0  0  0  0  0  0
   42.0200   38.9200   30.0240 C   0  0  0  0  0  0  0  0  0  0  0  0
   34.8900   35.4190   33.2510 S   0  0  0  0  0  0  0  0  0  0  0  0
   40.7910   36.4580   33.8570 C   0  0  0  0  0  0  0  0  0  0  0  0
   43.0520   41.0770   29.7400 C   0  0  0  0  0  0  0  0  0  0  0  0
   43.3460   37.2800   32.4350 C   0  0  0  0  0  0  0  0  0  0  0  0
   45.4200   38.4790   33.0300 O   0  0  0  0  0  0  0  0  0  0  0  0
   33.3460   33.5880   35.6870 C   0  0  0  0  0  0  0  0  0  0  0  0
   36.9440   33.9700   34.5960 C   0  0  0  0  0  0  0  0  0  0  0  0
   41.3620   40.0220   30.8630 C   0  0  0  0  0  0  0  0  0  0  0  0
   43.6440   39.8460   31.9680 C   0  0  0  0  0  0  0  0  0  0  0  0
   33.4260   35.4020   33.6900 C   0  0  0  0  0  0  0  0  0  0  0  0
   37.3070   32.4950   34.8640 C   0  0  0  0  0  0  0  0  0  0  0  0
   38.6590   32.1960   34.5440 O   0  0  0  0  0  0  0  0  0  0  0  0
   40.5050   37.4230   33.0810 O   0  0  0  0  0  0  0  0  0  0  0  0
   34.8350   33.5050   35.4880 C   0  0  0  0  0  0  0  0  0  0  0  0
   39.9930   35.5550   34.3000 N   0  0  0  0  0  0  0  0  0  0  0  0
   32.8420   34.9170   34.9930 C   0  0  0  0  0  0  0  0  0  0  0  0
   42.0440   36.4600   34.3640 N   0  0  0  0  0  0  0  0  0  0  0  0
   44.2390   38.4840   32.2620 C   0  0  0  0  0  0  0  0  0  0  0  0
   37.9100   34.9150   34.9360 C   0  0  0  0  0  0  0  0  0  0  0  0
   42.8330   39.9910   30.6860 C   0  0  0  0  0  0  0  0  0  0  0  0
   43.1010   37.1520   33.8940 C   0  0  0  0  0  0  0  0  0  0  0  0
   35.5980   34.2620   34.3940 C   0  0  0  0  0  0  0  0  0  0  0  0
  1 17  1  0
  1 21  1  0
  2 22  1  0
  2 10  1  0
  3 12  1  0
  3 24  1  0
  4 17  1  0
  4 19  1  0
  5 22  1  0
  6 23  1  0
  9 13  1  0
  9 21  1  0
 11 20  1  0
 12 18  1  0
 14 13  1  0
 15  4  2  0
 16  8  1  0
 18  8  1  0
 20  6  1  0
 20  7  1  0
 22 10  1  0
 22 11  1  0
 23 19  1  0
 24  9  1  0
 24 16  2  0
M  END
$$$$
