
     RDKit          3D

 12 12  0  0  0  0  0  0  0  0999 V2000
   35.9220   37.2410   32.1080 C   0  0  0  0  0  0  0  0  0  0  0  0
   35.0100   37.0540   31.4610 N   0  0  0  0  0  0  0  0  0  0  0  0
   40.5530   36.1270   32.4510 C   0  0  0  0  0  0  0  0  0  0  0  0
   38.1320   35.4110   31.9750 N   0  0  0  0  0  0  0  0  0  0  0  0
   39.4900   37.1280   32.8260 C   0  0  0  0  0  0  0  0  0  0  0  0
   38.2740   36.7860   32.3670 C   0  0  0  0  0  0  0  0  0  0  0  0
   38.6550   39.2720   33.4790 C   0  0  0  0  0  0  0  0  0  0  0  0
   37.3390   38.8860   33.1010 C   0  0  0  0  0  0  0  0  0  0  0  0
   39.6160   38.2850   33.5700 C   0  0  0  0  0  0  0  0  0  0  0  0
   40.7910   38.3310   34.5000 C   0  0  0  0  0  0  0  0  0  0  0  0
   37.2340   37.7130   32.5000 C   0  0  0  0  0  0  0  0  0  0  0  0
   41.0930   39.7340   34.9280 C   0  0  0  0  0  0  0  0  0  0  0  0
  1 11  1  0
  2  1  3  0
  3  5  1  0
  4  6  1  0
  5  9  1  0
  6 11  1  0
  6  5  2  0
  7  9  2  0
  8  7  1  0
  9 10  1  0
 10 12  1  0
 11  8  2  0
M  END
$$$$

     RDKit          3D

 12 13  0  0  0  0  0  0  0  0999 V2000
   40.7560   36.9850   31.0960 O   0  0  0  0  0  0  0  0  0  0  0  0
   40.8060   38.1370   31.5580 C   0  0  0  0  0  0  0  0  0  0  0  0
   40.0130   39.7810   32.7240 O   0  0  0  0  0  0  0  0  0  0  0  0
   41.5290   38.3420   34.1400 O   0  0  0  0  0  0  0  0  0  0  0  0
   42.2410   38.9820   33.2520 C   0  0  0  0  0  0  0  0  0  0  0  0
   39.3810   38.9670   33.2850 C   0  0  0  0  0  0  0  0  0  0  0  0
   38.6700   37.6230   33.4110 O   0  0  0  0  0  0  0  0  0  0  0  0
   42.6250   39.7920   30.9140 C   0  0  0  0  0  0  0  0  0  0  0  0
   38.3310   39.1200   34.0840 O   0  0  0  0  0  0  0  0  0  0  0  0
   39.5920   39.1320   31.8300 C   0  0  0  0  0  0  0  0  0  0  0  0
   42.1380   38.7370   31.8470 C   0  0  0  0  0  0  0  0  0  0  0  0
   43.4280   39.3070   33.6970 O   0  0  0  0  0  0  0  0  0  0  0  0
  1  2  2  0
  2 11  1  0
  3  6  1  0
  5 12  2  0
  5  4  1  0
  6  7  1  0
  6  9  1  0
  7  9  1  0
 10  2  1  0
 10  3  1  0
 10  6  1  0
 11  8  1  0
 11  5  1  0
M  END
$$$$

     RDKit          3D

  4  3  0  0  0  0  0  0  0  0999 V2000
   42.0720   37.3900   33.1220 O   0  0  0  0  0  0  0  0  0  0  0  0
   40.9190   38.8140   31.8620 N   0  0  0  0  0  0  0  0  0  0  0  0
   43.0680   38.5870   31.7570 O   0  0  0  0  0  0  0  0  0  0  0  0
   42.0340   38.2630   32.1720 C   0  0  0  0  0  0  0  0  0  0  0  0
  2  4  1  0
  3  4  2  0
  4  1  1  0
M  END
$$$$

     RDKit          3D

  5  4  0  0  0  0  0  0  0  0999 V2000
   41.6790   39.2910   31.8550 C   0  0  0  0  0  0  0  0  0  0  0  0
   41.7130   38.2870   30.7440 C   0  0  0  0  0  0  0  0  0  0  0  0
   43.0260   38.3300   30.3440 C   0  0  0  0  0  0  0  0  0  0  0  0
   42.9770   38.0040   28.8570 C   0  0  0  0  0  0  0  0  0  0  0  0
   42.0320   40.0730   31.9130 O   0  0  0  0  0  0  0  0  0  0  0  0
  1  5  2  0
  2  1  1  0
  3  2  1  0
  4  3  1  0
M  END
$$$$

     RDKit          3D

 12 12  0  0  0  0  0  0  0  0999 V2000
   41.3830   39.2930   32.8100 C   0  0  0  0  0  0  0  0  0  0  0  0
   44.0110   37.9020   32.3280 C   0  0  0  0  0  0  0  0  0  0  0  0
   40.3190   39.8540   31.9960 C   0  0  0  0  0  0  0  0  0  0  0  0
   42.7570   37.1070   32.2150 C   0  0  0  0  0  0  0  0  0  0  0  0
   39.1520   41.8270   30.5330 N   0  0  0  0  0  0  0  0  0  0  0  0
   41.5260   37.9260   32.5520 C   0  0  0  0  0  0  0  0  0  0  0  0
   39.1540   37.9170   32.1790 C   0  0  0  0  0  0  0  0  0  0  0  0
   40.5950   41.6120   31.4440 S   0  0  0  0  0  0  0  0  0  0  0  0
   40.1840   36.0090   33.0510 O   0  0  0  0  0  0  0  0  0  0  0  0
   39.1610   39.2250   31.7580 C   0  0  0  0  0  0  0  0  0  0  0  0
   40.3130   37.3120   32.6260 C   0  0  0  0  0  0  0  0  0  0  0  0
   41.7870   39.8160   34.0190 N   0  0  0  0  0  0  0  0  0  0  0  0
  1 12  1  0
  3  8  1  0
  3  1  1  0
  4  2  1  0
  5  8  1  0
  6  4  1  0
  6 11  1  0
  6  1  1  0
  7 11  2  0
 10  3  1  0
 10  7  1  0
 11  9  1  0
M  END
$$$$

     RDKit          3D

  6  5  0  0  0  0  0  0  0  0999 V2000
   39.3910   38.9880   28.9740 C   0  0  0  0  0  0  0  0  0  0  0  0
   39.6150   40.0640   28.6940 N   0  0  0  0  0  0  0  0  0  0  0  0
   38.0040   39.0500   28.7790 C   0  0  0  0  0  0  0  0  0  0  0  0
   41.9150   39.9280   28.4790 Br  0  0  0  0  0  0  0  0  0  0  0  0
   41.1200   38.1020   30.5960 N   0  0  0  0  0  0  0  0  0  0  0  0
   39.9280   38.1510   30.0590 C   0  0  0  0  0  0  0  0  0  0  0  0
  1  3  1  0
  1  6  1  0
  2  1  1  0
  4  2  1  0
  6  5  2  0
M  END
$$$$

     RDKit          3D

 31 34  0  0  0  0  0  0  0  0999 V2000
   34.7750   35.8720   32.7400 C   0  0  0  0  0  0  0  0  0  0  0  0
   33.4110   35.7800   32.8330 C   0  0  0  0  0  0  0  0  0  0  0  0
   44.6340   39.3540   33.6110 C   0  0  0  0  0  0  0  0  0  0  0  0
   41.3850   36.3190   32.8360 C   0  0  0  0  0  0  0  0  0  0  0  0
   32.9170   34.9910   33.8220 C   0  0  0  0  0  0  0  0  0  0  0  0
   40.9730   40.7320   34.6590 N   0  0  0  0  0  0  0  0  0  0  0  0
   35.0650   34.0510   34.2080 C   0  0  0  0  0  0  0  0  0  0  0  0
   38.2560   34.7870   33.9370 C   0  0  0  0  0  0  0  0  0  0  0  0
   44.1450   40.5700   36.1870 C   0  0  0  0  0  0  0  0  0  0  0  0
   43.3860   39.6710   34.0220 C   0  0  0  0  0  0  0  0  0  0  0  0
   41.3410   38.5980   33.5970 C   0  0  0  0  0  0  0  0  0  0  0  0
   37.0290   35.1150   33.5170 N   0  0  0  0  0  0  0  0  0  0  0  0
   45.6530   39.8290   34.4140 C   0  0  0  0  0  0  0  0  0  0  0  0
   47.1000   39.4420   34.1350 C   0  0  0  0  0  0  0  0  0  0  0  0
   40.4210   35.2970   33.4900 C   0  0  0  0  0  0  0  0  0  0  0  0
   40.4420   32.6290   35.8680 F   0  0  0  0  0  0  0  0  0  0  0  0
   31.6990   35.2040   34.7590 C   0  0  0  0  0  0  0  0  0  0  0  0
   45.4070   40.4090   35.6580 C   0  0  0  0  0  0  0  0  0  0  0  0
   39.3920   38.2990   34.7240 O   0  0  0  0  0  0  0  0  0  0  0  0
   39.1430   35.6040   33.3380 C   0  0  0  0  0  0  0  0  0  0  0  0
   38.5950   33.6890   34.6980 C   0  0  0  0  0  0  0  0  0  0  0  0
   39.9590   33.5620   35.0470 C   0  0  0  0  0  0  0  0  0  0  0  0
   40.8740   34.3630   34.3760 C   0  0  0  0  0  0  0  0  0  0  0  0
   42.2540   37.7560   32.7110 C   0  0  0  0  0  0  0  0  0  0  0  0
   39.2150   38.7870   32.5410 N   0  0  0  0  0  0  0  0  0  0  0  0
   45.1100   38.6610   32.2220 C   0  0  0  0  0  0  0  0  0  0  0  0
   43.1220   40.1580   35.3750 C   0  0  0  0  0  0  0  0  0  0  0  0
   41.9890   39.6680   34.4470 C   0  0  0  0  0  0  0  0  0  0  0  0
   35.6420   35.0540   33.4780 C   0  0  0  0  0  0  0  0  0  0  0  0
   33.7180   34.1340   34.3180 C   0  0  0  0  0  0  0  0  0  0  0  0
   39.9960   38.5200   33.6150 C   0  0  0  0  0  0  0  0  0  0  0  0
  1  2  2  0
  1 29  1  0
  2  5  1  0
  3 10  2  0
  3 13  1  0
  4 15  1  0
  5 30  2  0
  5 17  1  0
  7 30  1  0
  8 21  1  0
 10 28  1  0
 10 27  1  0
 11 24  1  0
 11 31  1  0
 11 28  1  0
 12  8  1  0
 13 18  2  0
 14 13  1  0
 15 23  2  0
 18  9  1  0
 20 15  1  0
 20  8  2  0
 21 22  2  0
 22 16  1  0
 23 22  1  0
 24  4  1  0
 25 31  1  0
 26  3  1  0
 27  9  2  0
 28  6  1  0
 28 27  1  0
 29 12  1  0
 29  7  2  0
 31 19  2  0
M  END
$$$$

     RDKit          3D

 10 10  0  0  0  0  0  0  0  0999 V2000
   42.3880   40.1070   33.8170 N   0  0  0  0  0  0  0  0  0  0  0  0
   44.1900   40.1340   32.3760 O   0  0  0  0  0  0  0  0  0  0  0  0
   41.2890   39.4660   34.1520 C   0  0  0  0  0  0  0  0  0  0  0  0
   41.0010   38.2230   33.6250 C   0  0  0  0  0  0  0  0  0  0  0  0
   39.7930   37.6610   33.8720 O   0  0  0  0  0  0  0  0  0  0  0  0
   42.8250   38.3390   32.2330 N   0  0  0  0  0  0  0  0  0  0  0  0
   41.4450   36.4800   32.1820 O   0  0  0  0  0  0  0  0  0  0  0  0
   41.7060   37.7260   32.5710 C   0  0  0  0  0  0  0  0  0  0  0  0
   43.1870   39.3930   33.0100 C   0  0  0  0  0  0  0  0  0  0  0  0
   39.6310   40.2970   34.2640 S   0  0  0  0  0  0  0  0  0  0  0  0
  1  3  1  0
  2  9  2  0
  3 10  2  0
  4  5  1  0
  4  3  1  0
  6  8  1  0
  6  9  1  0
  7  8  2  0
  8  4  1  0
  9  1  1  0
M  END
$$$$

     RDKit          3D

 12 12  0  0  0  0  0  0  0  0999 V2000
   36.8410   37.0110   32.5090 C   0  0  0  0  0  0  0  0  0  0  0  0
   41.2800   40.4740   32.5320 C   0  0  0  0  0  0  0  0  0  0  0  0
   42.2730   41.1190   32.3840 O   0  0  0  0  0  0  0  0  0  0  0  0
   37.9920   37.7200   33.2930 C   0  0  0  0  0  0  0  0  0  0  0  0
   40.7690   39.0600   32.9840 C   0  0  0  0  0  0  0  0  0  0  0  0
   39.3750   38.2720   32.7420 C   0  0  0  0  0  0  0  0  0  0  0  0
   40.5150   39.4630   34.5130 O   0  0  0  0  0  0  0  0  0  0  0  0
   41.2120   36.9520   31.4880 O   0  0  0  0  0  0  0  0  0  0  0  0
   41.5940   38.2070   31.9390 C   0  0  0  0  0  0  0  0  0  0  0  0
   42.5700   38.6620   31.3180 O   0  0  0  0  0  0  0  0  0  0  0  0
   39.3100   36.9510   33.4960 C   0  0  0  0  0  0  0  0  0  0  0  0
   35.6930   36.5840   33.2600 O   0  0  0  0  0  0  0  0  0  0  0  0
  1 12  1  0
  2  5  1  0
  3  2  2  0
  4  1  1  0
  4 11  1  0
  5  7  1  0
  6  5  1  0
  6  4  1  0
  6 11  1  0
  8  9  1  0
  9  5  1  0
 10  9  2  0
M  END
$$$$

     RDKit          3D

 19 20  0  0  0  0  0  0  0  0999 V2000
   39.1570   36.6630   33.1100 C   0  0  0  0  0  0  0  0  0  0  0  0
   38.7420   37.7160   32.6520 O   0  0  0  0  0  0  0  0  0  0  0  0
   40.6280   38.6960   34.1870 C   0  0  0  0  0  0  0  0  0  0  0  0
   42.7500   38.2940   32.7240 C   0  0  0  0  0  0  0  0  0  0  0  0
   41.7540   43.1900   32.8780 C   0  0  0  0  0  0  0  0  0  0  0  0
   40.9710   39.9790   34.2260 O   0  0  0  0  0  0  0  0  0  0  0  0
   40.6830   36.3780   32.9870 N   0  0  0  0  0  0  0  0  0  0  0  0
   35.7330   34.9220   34.1290 C   0  0  0  0  0  0  0  0  0  0  0  0
   41.7050   42.0240   33.2730 C   0  0  0  0  0  0  0  0  0  0  0  0
   38.4020   34.4720   34.0750 C   0  0  0  0  0  0  0  0  0  0  0  0
   36.0510   33.9980   34.5050 C   0  0  0  0  0  0  0  0  0  0  0  0
   41.4830   37.6860   33.3110 C   0  0  0  0  0  0  0  0  0  0  0  0
   36.7010   36.0100   33.6900 C   0  0  0  0  0  0  0  0  0  0  0  0
   34.3900   34.8520   34.2840 O   0  0  0  0  0  0  0  0  0  0  0  0
   42.8520   39.8290   32.6500 C   0  0  0  0  0  0  0  0  0  0  0  0
   38.0440   35.7090   33.6130 C   0  0  0  0  0  0  0  0  0  0  0  0
   41.7610   40.6300   33.3110 C   0  0  0  0  0  0  0  0  0  0  0  0
   37.3800   33.5980   34.4190 C   0  0  0  0  0  0  0  0  0  0  0  0
   41.6180   35.3760   32.1610 C   0  0  0  0  0  0  0  0  0  0  0  0
  1 16  1  0
  2  1  2  0
  3  6  1  0
  4 12  2  0
  5  9  3  0
  7  1  1  0
  7 12  1  0
  8 14  1  0
  8 11  1  0
  9 17  1  0
 10 18  1  0
 12  3  1  0
 13  8  2  0
 15  4  1  0
 15 17  2  0
 16 13  1  0
 16 10  2  0
 17  6  1  0
 18 11  2  0
 19  7  1  0
M  END
$$$$

     RDKit          3D

 14 14  0  0  0  0  0  0  0  0999 V2000
   37.1580   38.5790   32.5780 C   0  0  0  0  0  0  0  0  0  0  0  0
   34.6750   37.6120   32.6100 C   0  0  0  0  0  0  0  0  0  0  0  0
   39.7160   38.2910   33.1040 C   0  0  0  0  0  0  0  0  0  0  0  0
   38.1110   36.3460   33.1580 C   0  0  0  0  0  0  0  0  0  0  0  0
   35.7490   36.6790   32.8240 O   0  0  0  0  0  0  0  0  0  0  0  0
   41.0800   38.9960   34.8100 O   0  0  0  0  0  0  0  0  0  0  0  0
   42.6790   38.8880   33.2100 C   0  0  0  0  0  0  0  0  0  0  0  0
   38.5390   39.1780   32.7660 C   0  0  0  0  0  0  0  0  0  0  0  0
   42.5120   37.2110   31.2760 C   0  0  0  0  0  0  0  0  0  0  0  0
   37.0380   37.0940   32.7990 C   0  0  0  0  0  0  0  0  0  0  0  0
   41.9000   36.0910   31.9670 O   0  0  0  0  0  0  0  0  0  0  0  0
   39.3940   36.9080   33.2950 C   0  0  0  0  0  0  0  0  0  0  0  0
   41.1350   38.8180   33.4070 C   0  0  0  0  0  0  0  0  0  0  0  0
   43.4040   37.9260   32.2610 C   0  0  0  0  0  0  0  0  0  0  0  0
  1  8  2  0
  1 10  1  0
  2  5  1  0
  3 12  2  0
  3 13  1  0
  4 12  1  0
  7 13  1  0
  8  3  1  0
  9 11  1  0
  9 14  1  0
 10  5  1  0
 10  4  2  0
 13  6  1  0
 14  7  1  0
M  END
$$$$

     RDKit          3D

 30 32  0  0  0  0  0  0  0  0999 V2000
   40.2690   40.9970   30.8150 C   0  0  0  0  0  0  0  0  0  0  0  0
   38.1230   42.8820   28.7750 O   0  0  0  0  0  0  0  0  0  0  0  0
   37.8150   41.2070   31.0180 O   0  0  0  0  0  0  0  0  0  0  0  0
   39.5470   37.5980   32.6520 C   0  0  0  0  0  0  0  0  0  0  0  0
   42.9160   38.5380   31.3420 C   0  0  0  0  0  0  0  0  0  0  0  0
   38.9240   35.3150   32.6250 C   0  0  0  0  0  0  0  0  0  0  0  0
   39.1190   39.0480   32.5130 C   0  0  0  0  0  0  0  0  0  0  0  0
   40.1510   39.7200   31.6790 C   0  0  0  0  0  0  0  0  0  0  0  0
   38.9000   41.0480   30.1350 C   0  0  0  0  0  0  0  0  0  0  0  0
   34.0040   36.3620   32.8830 C   0  0  0  0  0  0  0  0  0  0  0  0
   41.3780   38.7050   31.5510 C   0  0  0  0  0  0  0  0  0  0  0  0
   43.4970   38.4080   32.9500 C   0  0  0  0  0  0  0  0  0  0  0  0
   31.7140   33.4920   35.1930 C   0  0  0  0  0  0  0  0  0  0  0  0
   31.3500   34.3460   36.0960 C   0  0  0  0  0  0  0  0  0  0  0  0
   31.6310   35.8070   35.7450 C   0  0  0  0  0  0  0  0  0  0  0  0
   37.2050   36.6880   32.9260 C   0  0  0  0  0  0  0  0  0  0  0  0
   38.5910   36.7510   32.7870 N   0  0  0  0  0  0  0  0  0  0  0  0
   41.0300   37.4840   32.3960 C   0  0  0  0  0  0  0  0  0  0  0  0
   40.6080   42.3210   28.9180 C   0  0  0  0  0  0  0  0  0  0  0  0
   41.4590   36.2510   31.9710 O   0  0  0  0  0  0  0  0  0  0  0  0
   33.5770   34.6710   34.5990 O   0  0  0  0  0  0  0  0  0  0  0  0
   34.8750   37.1420   32.1570 C   0  0  0  0  0  0  0  0  0  0  0  0
   41.2010   41.0820   29.5670 C   0  0  0  0  0  0  0  0  0  0  0  0
   35.7330   35.1010   34.1240 C   0  0  0  0  0  0  0  0  0  0  0  0
   36.2350   37.3120   32.1940 C   0  0  0  0  0  0  0  0  0  0  0  0
   36.7160   35.7910   33.7960 C   0  0  0  0  0  0  0  0  0  0  0  0
   39.1050   42.1880   29.1640 C   0  0  0  0  0  0  0  0  0  0  0  0
   43.7660   38.9890   30.5510 C   0  0  0  0  0  0  0  0  0  0  0  0
   34.4530   35.3850   33.8400 C   0  0  0  0  0  0  0  0  0  0  0  0
   32.9460   33.5390   34.4560 C   0  0  0  0  0  0  0  0  0  0  0  0
  1 23  1  0
  1  8  1  0
  2 27  2  0
  4 17  1  0
  5 12  1  0
  6 17  1  0
  7  4  1  0
  8  7  1  0
  9  1  1  0
  9  3  1  0
 10 29  1  0
 11  5  1  0
 11  8  1  0
 11 18  1  0
 13 14  1  0
 15 14  1  0
 16 26  1  0
 17 16  1  0
 18 20  1  0
 18  4  1  0
 19 27  1  0
 19 23  1  0
 22 25  1  0
 22 10  2  0
 25 16  2  0
 26 24  2  0
 27  9  1  0
 28  5  2  0
 29 24  1  0
 29 21  1  0
 30 21  1  0
 30 13  1  0
M  END
$$$$

     RDKit          3D

  8  8  0  0  0  0  0  0  0  0999 V2000
   41.1040   39.6720   34.1170 O   0  0  0  0  0  0  0  0  0  0  0  0
   40.2920   38.5340   33.9570 C   0  0  0  0  0  0  0  0  0  0  0  0
   41.5620   37.5270   32.1430 C   0  0  0  0  0  0  0  0  0  0  0  0
   40.1790   38.1230   32.4940 C   0  0  0  0  0  0  0  0  0  0  0  0
   38.9880   38.9670   34.6370 C   0  0  0  0  0  0  0  0  0  0  0  0
   38.8940   37.5970   31.9980 C   0  0  0  0  0  0  0  0  0  0  0  0
   37.9730   38.5950   32.4050 O   0  0  0  0  0  0  0  0  0  0  0  0
   37.7620   38.5530   33.8320 C   0  0  0  0  0  0  0  0  0  0  0  0
  2  1  1  0
  2  5  1  0
  4  3  1  0
  4  2  1  0
  6  7  1  0
  6  4  1  0
  7  8  1  0
  8  5  1  0
M  END
$$$$

     RDKit          3D

  8  7  0  0  0  0  0  0  0  0999 V2000
   39.7620   38.3350   32.0640 C   0  0  0  0  0  0  0  0  0  0  0  0
   39.2540   39.0020   34.4370 C   0  0  0  0  0  0  0  0  0  0  0  0
   41.2930   38.1620   32.2870 C   0  0  0  0  0  0  0  0  0  0  0  0
   42.1140   39.1770   32.1800 O   0  0  0  0  0  0  0  0  0  0  0  0
   39.2950   37.6620   34.6940 O   0  0  0  0  0  0  0  0  0  0  0  0
   41.8200   36.9250   32.4090 O   0  0  0  0  0  0  0  0  0  0  0  0
   39.3400   39.4530   33.0200 C   0  0  0  0  0  0  0  0  0  0  0  0
   39.0970   37.1900   32.1380 O   0  0  0  0  0  0  0  0  0  0  0  0
  1  8  1  0
  1  3  1  0
  1  7  1  0
  2  5  1  0
  3  6  1  0
  4  3  2  0
  7  2  1  0
M  END
$$$$

     RDKit          3D

 14 13  0  0  0  0  0  0  0  0999 V2000
   40.9890   37.3970   35.4520 C   0  0  0  0  0  0  0  0  0  0  0  0
   40.9290   37.7950   33.9510 C   0  0  0  0  0  0  0  0  0  0  0  0
   39.9340   39.2240   32.2860 O   0  0  0  0  0  0  0  0  0  0  0  0
   43.1280   37.5100   31.7310 C   0  0  0  0  0  0  0  0  0  0  0  0
   39.7750   37.0620   33.4980 O   0  0  0  0  0  0  0  0  0  0  0  0
   42.0250   38.5340   31.8120 C   0  0  0  0  0  0  0  0  0  0  0  0
   42.2680   39.5490   30.9150 O   0  0  0  0  0  0  0  0  0  0  0  0
   38.6390   37.6490   33.7190 O   0  0  0  0  0  0  0  0  0  0  0  0
   39.9890   37.8140   36.1690 O   0  0  0  0  0  0  0  0  0  0  0  0
   43.3570   36.7970   30.7290 O   0  0  0  0  0  0  0  0  0  0  0  0
   41.1460   38.7910   32.7920 C   0  0  0  0  0  0  0  0  0  0  0  0
   44.1410   37.7430   32.4220 O   0  0  0  0  0  0  0  0  0  0  0  0
   41.5080   37.7660   37.7970 O   0  0  0  0  0  0  0  0  0  0  0  0
   41.9400   37.4940   36.4990 C   0  0  0  0  0  0  0  0  0  0  0  0
  1  9  1  0
  1 14  1  0
  2  5  1  0
  2  1  1  0
  4  6  1  0
  4 12  1  0
  5  8  1  0
  6  7  1  0
  6 11  1  0
 10  4  2  0
 11  3  1  0
 11  2  1  0
 14 13  1  0
M  END
$$$$

     RDKit          3D

 14 14  0  0  0  0  0  0  0  0999 V2000
   38.5400   35.2900   33.4500 C   0  0  0  0  0  0  0  0  0  0  0  0
   40.4150   35.9400   34.7620 N   0  0  0  0  0  0  0  0  0  0  0  0
   37.0590   33.1800   33.4540 C   0  0  0  0  0  0  0  0  0  0  0  0
   39.3940   38.2020   33.7590 C   0  0  0  0  0  0  0  0  0  0  0  0
   39.4660   39.8270   33.8880 S   0  0  0  0  0  0  0  0  0  0  0  0
   37.9390   34.1460   32.6800 C   0  0  0  0  0  0  0  0  0  0  0  0
   40.6440   37.9540   35.7630 O   0  0  0  0  0  0  0  0  0  0  0  0
   41.3190   35.5080   35.4460 O   0  0  0  0  0  0  0  0  0  0  0  0
   38.4930   36.9330   32.9020 S   0  0  0  0  0  0  0  0  0  0  0  0
   39.1130   40.3070   35.1850 O   0  0  0  0  0  0  0  0  0  0  0  0
   40.2810   37.3690   34.6940 C   0  0  0  0  0  0  0  0  0  0  0  0
   39.3840   35.0060   34.4220 C   0  0  0  0  0  0  0  0  0  0  0  0
   40.7710   40.4460   33.4840 O   0  0  0  0  0  0  0  0  0  0  0  0
   38.6660   40.4870   32.8860 O   0  0  0  0  0  0  0  0  0  0  0  0
  1  6  1  0
  1 12  1  0
  2  8  1  0
  4  5  1  0
  4 11  1  0
  5 10  1  0
  6  3  1  0
  9  1  1  0
  9  4  1  0
 11  2  1  0
 11  7  2  0
 12  2  1  0
 13  5  1  0
 14  5  1  0
M  END
$$$$

     RDKit          3D

 13 14  0  0  0  0  0  0  0  0999 V2000
   41.1000   40.0250   37.6950 C   0  0  0  0  0  0  0  0  0  0  0  0
   40.7450   38.0170   35.9370 N   0  0  0  0  0  0  0  0  0  0  0  0
   42.3950   39.1430   37.8520 C   0  0  0  0  0  0  0  0  0  0  0  0
   42.3670   36.8580   34.5450 C   0  0  0  0  0  0  0  0  0  0  0  0
   40.2050   37.9780   38.3620 C   0  0  0  0  0  0  0  0  0  0  0  0
   40.1800   37.0880   33.8740 C   0  0  0  0  0  0  0  0  0  0  0  0
   40.6600   36.7880   31.6460 O   0  0  0  0  0  0  0  0  0  0  0  0
   38.9110   36.2690   34.1280 C   0  0  0  0  0  0  0  0  0  0  0  0
   41.0180   37.4600   34.9080 C   0  0  0  0  0  0  0  0  0  0  0  0
   42.3680   36.3310   33.1230 C   0  0  0  0  0  0  0  0  0  0  0  0
   43.2460   37.9270   34.5780 O   0  0  0  0  0  0  0  0  0  0  0  0
   41.0130   36.8150   32.7930 C   0  0  0  0  0  0  0  0  0  0  0  0
   41.0960   38.6300   37.1830 C   0  0  0  0  0  0  0  0  0  0  0  0
  1  3  1  0
  2 13  1  0
  4 11  1  0
  4  9  1  0
  6  8  1  0
  6  9  1  0
  7 12  2  0
  9  2  2  3
 10  4  1  0
 12 10  1  0
 12  6  1  0
 13  1  1  0
 13  3  1  0
 13  5  1  0
M  END
$$$$

     RDKit          3D

 14 14  0  0  0  0  0  0  0  0999 V2000
   35.6410   35.3740   34.6820 O   0  0  0  0  0  0  0  0  0  0  0  0
   35.7560   34.9100   33.5360 C   0  0  0  0  0  0  0  0  0  0  0  0
   40.2980   36.0220   32.8530 C   0  0  0  0  0  0  0  0  0  0  0  0
   37.9610   36.9390   32.9650 C   0  0  0  0  0  0  0  0  0  0  0  0
   43.0110   38.5090   33.2450 O   0  0  0  0  0  0  0  0  0  0  0  0
   34.7390   34.8220   32.6710 O   0  0  0  0  0  0  0  0  0  0  0  0
   37.0980   34.5280   33.0410 C   0  0  0  0  0  0  0  0  0  0  0  0
   33.4820   35.2640   33.1050 C   0  0  0  0  0  0  0  0  0  0  0  0
   39.3080   36.8950   33.5460 N   0  0  0  0  0  0  0  0  0  0  0  0
   39.7090   38.2540   33.8530 C   0  0  0  0  0  0  0  0  0  0  0  0
   37.6910   35.6590   32.2140 C   0  0  0  0  0  0  0  0  0  0  0  0
   41.7200   36.5560   32.6210 C   0  0  0  0  0  0  0  0  0  0  0  0
   41.0510   38.1530   34.5150 C   0  0  0  0  0  0  0  0  0  0  0  0
   42.0910   37.5420   33.7040 C   0  0  0  0  0  0  0  0  0  0  0  0
  2  1  2  0
  3  9  1  0
  4  9  1  0
  5 14  1  0
  6  8  1  0
  6  2  1  0
  7  2  1  0
  9 10  1  0
 10 13  1  0
 11  4  1  0
 11  7  1  0
 12  3  1  0
 12 14  1  0
 14 13  1  0
M  END
$$$$

     RDKit          3D

  9  9  0  0  0  0  0  0  0  0999 V2000
   41.2910   39.6280   34.0940 O   0  0  0  0  0  0  0  0  0  0  0  0
   42.1240   37.7720   32.7740 C   0  0  0  0  0  0  0  0  0  0  0  0
   41.7270   36.5930   33.6590 C   0  0  0  0  0  0  0  0  0  0  0  0
   43.4810   38.4520   32.7330 C   0  0  0  0  0  0  0  0  0  0  0  0
   40.9990   38.9030   32.8160 C   0  0  0  0  0  0  0  0  0  0  0  0
   40.3810   39.8660   31.2050 O   0  0  0  0  0  0  0  0  0  0  0  0
   41.2050   39.7500   31.7810 C   0  0  0  0  0  0  0  0  0  0  0  0
   42.4810   40.2110   31.7370 O   0  0  0  0  0  0  0  0  0  0  0  0
   43.5430   39.2990   31.4790 C   0  0  0  0  0  0  0  0  0  0  0  0
  2  5  1  0
  2  3  1  0
  4  2  1  0
  5  1  1  0
  6  7  2  0
  7  5  1  0
  8  7  1  0
  9  8  1  0
  9  4  1  0
M  END
$$$$

     RDKit          3D

 10 11  0  0  0  0  0  0  0  0999 V2000
   41.2360   36.4230   35.3870 C   0  0  0  0  0  0  0  0  0  0  0  0
   42.4570   34.8720   34.4480 N   0  0  0  0  0  0  0  0  0  0  0  0
   41.1410   34.6350   34.2950 C   0  0  0  0  0  0  0  0  0  0  0  0
   40.2090   38.6100   35.0770 O   0  0  0  0  0  0  0  0  0  0  0  0
   41.3540   37.8240   37.3890 O   0  0  0  0  0  0  0  0  0  0  0  0
   40.1840   37.8630   37.1010 O   0  0  0  0  0  0  0  0  0  0  0  0
   40.8160   37.7190   35.9420 C   0  0  0  0  0  0  0  0  0  0  0  0
   40.3430   35.4970   34.8620 N   0  0  0  0  0  0  0  0  0  0  0  0
   40.6300   33.6140   33.6580 N   0  0  0  0  0  0  0  0  0  0  0  0
   42.5380   36.1260   35.0400 C   0  0  0  0  0  0  0  0  0  0  0  0
  1  7  1  0
  2 10  1  0
  3  2  2  0
  3  8  1  0
  4  7  1  0
  6  5  1  0
  7  6  1  0
  7  5  1  0
  8  1  2  0
  9  3  1  0
 10  1  1  0
M  END
$$$$
