
     RDKit          3D

 12 12  0  0  0  0  0  0  0  0999 V2000
   35.1900   41.2810   28.4720 O   0  0  0  0  0  0  0  0  0  0  0  0
   37.3570   40.5190   27.3460 C   0  0  0  0  0  0  0  0  0  0  0  0
   39.4780   41.7920   29.0070 O   0  0  0  0  0  0  0  0  0  0  0  0
   36.8340   41.6010   29.9510 O   0  0  0  0  0  0  0  0  0  0  0  0
   39.1640   37.9430   28.8970 C   0  0  0  0  0  0  0  0  0  0  0  0
   37.9250   40.0270   28.6250 C   0  0  0  0  0  0  0  0  0  0  0  0
   35.9840   41.1270   27.2210 C   0  0  0  0  0  0  0  0  0  0  0  0
   39.7180   37.0110   29.1170 N   0  0  0  0  0  0  0  0  0  0  0  0
   38.3540   38.9460   29.6480 C   0  0  0  0  0  0  0  0  0  0  0  0
   37.5060   39.6640   26.1730 O   0  0  0  0  0  0  0  0  0  0  0  0
   38.1330   41.3360   29.3930 C   0  0  0  0  0  0  0  0  0  0  0  0
   35.6550   41.1650   29.6380 C   0  0  0  0  0  0  0  0  0  0  0  0
  1 12  1  0
  2 10  1  0
  2  6  1  0
  3 11  2  0
  5  8  2  0
  5  9  1  0
  6 11  1  0
  6  9  1  0
  7  2  1  0
  7  1  1  0
 11  4  1  0
 12  4  1  0
M  END
$$$$

     RDKit          3D

  9  8  0  0  0  0  0  0  0  0999 V2000
   39.5570   40.2060   27.8090 C   0  0  0  0  0  0  0  0  0  0  0  0
   40.6910   39.7620   28.0790 O   0  0  0  0  0  0  0  0  0  0  0  0
   37.4690   41.9130   26.8920 N   0  0  0  0  0  0  0  0  0  0  0  0
   37.3230   38.9190   25.2650 O   0  0  0  0  0  0  0  0  0  0  0  0
   37.1330   40.2360   25.3300 C   0  0  0  0  0  0  0  0  0  0  0  0
   38.9820   41.0650   28.5260 O   0  0  0  0  0  0  0  0  0  0  0  0
   39.2180   39.9670   26.3780 C   0  0  0  0  0  0  0  0  0  0  0  0
   36.7680   40.8060   24.2180 O   0  0  0  0  0  0  0  0  0  0  0  0
   38.1580   41.0150   26.0430 C   0  0  0  0  0  0  0  0  0  0  0  0
  1  2  2  0
  1  6  1  0
  4  5  1  0
  5  9  1  0
  7  1  1  0
  8  5  1  0
  9  7  1  0
  9  3  1  0
M  END
$$$$

     RDKit          3D

 27 30  0  0  0  0  0  0  0  0999 V2000
   36.0230   33.0190   30.8820 C   0  0  0  0  0  0  0  0  0  0  0  0
   36.7320   39.6670   28.7470 N   0  0  0  0  0  0  0  0  0  0  0  0
   37.2790   37.8640   29.9080 C   0  0  0  0  0  0  0  0  0  0  0  0
   35.0810   32.0450   30.5950 C   0  0  0  0  0  0  0  0  0  0  0  0
   37.9770   41.4210   24.8850 C   0  0  0  0  0  0  0  0  0  0  0  0
   37.9810   39.3560   28.4760 C   0  0  0  0  0  0  0  0  0  0  0  0
   37.3640   32.7270   31.0030 C   0  0  0  0  0  0  0  0  0  0  0  0
   36.3920   40.8750   28.0820 C   0  0  0  0  0  0  0  0  0  0  0  0
   36.7890   30.3950   30.7430 C   0  0  0  0  0  0  0  0  0  0  0  0
   36.0020   36.0280   30.9540 C   0  0  0  0  0  0  0  0  0  0  0  0
   35.1850   36.8320   31.2090 N   0  0  0  0  0  0  0  0  0  0  0  0
   34.1250   34.0940   32.1130 C   0  0  0  0  0  0  0  0  0  0  0  0
   38.3480   38.3510   29.3330 N   0  0  0  0  0  0  0  0  0  0  0  0
   38.3580   40.0040   27.3490 N   0  0  0  0  0  0  0  0  0  0  0  0
   35.4360   30.7020   30.6440 C   0  0  0  0  0  0  0  0  0  0  0  0
   33.7190   36.4750   31.0780 C   0  0  0  0  0  0  0  0  0  0  0  0
   36.1240   38.7180   29.4230 C   0  0  0  0  0  0  0  0  0  0  0  0
   37.7500   31.3950   30.8030 C   0  0  0  0  0  0  0  0  0  0  0  0
   37.4320   43.2650   26.3860 C   0  0  0  0  0  0  0  0  0  0  0  0
   37.2560   43.7690   27.5370 O   0  0  0  0  0  0  0  0  0  0  0  0
   37.2430   36.6520   30.4660 N   0  0  0  0  0  0  0  0  0  0  0  0
   34.3020   38.9050   29.2420 Cl  0  0  0  0  0  0  0  0  0  0  0  0
   37.4480   40.9890   27.1520 C   0  0  0  0  0  0  0  0  0  0  0  0
   37.5030   44.0850   25.3860 N   0  0  0  0  0  0  0  0  0  0  0  0
   37.7050   41.9510   26.2760 N   0  0  0  0  0  0  0  0  0  0  0  0
   33.3140   35.4080   32.1130 C   0  0  0  0  0  0  0  0  0  0  0  0
   35.4990   34.4620   31.2480 C   0  0  0  0  0  0  0  0  0  0  0  0
  1  7  1  0
  2 17  1  0
  3 21  1  0
  4 15  1  0
  4  1  2  0
  5 25  1  0
  6  2  1  0
  6 13  2  0
  8  2  1  0
  9 18  1  0
 10 11  2  0
 10 27  1  0
 13  3  2  0
 14  6  1  0
 15  9  2  0
 16 11  1  0
 16 26  1  0
 17 22  1  0
 17  3  1  0
 18  7  2  0
 19 20  2  0
 21 10  1  0
 23 25  1  0
 23 14  1  0
 23  8  1  0
 24 19  1  0
 25 19  1  0
 26 12  1  0
 27  1  1  0
 27 12  1  0
M  END
$$$$

     RDKit          3D

 21 21  0  0  0  0  0  0  0  0999 V2000
   38.9660   38.4360   28.5170 C   0  0  0  0  0  0  0  0  0  0  0  0
   36.7040   39.4070   28.9840 C   0  0  0  0  0  0  0  0  0  0  0  0
   35.6410   42.5800   26.5800 O   0  0  0  0  0  0  0  0  0  0  0  0
   34.5060   38.4610   30.1490 S   0  0  0  0  0  0  0  0  0  0  0  0
   36.1300   38.2000   29.4890 C   0  0  0  0  0  0  0  0  0  0  0  0
   38.4500   37.2520   28.7100 N   0  0  0  0  0  0  0  0  0  0  0  0
   37.9370   39.5400   28.0430 C   0  0  0  0  0  0  0  0  0  0  0  0
   38.0060   31.5520   32.3180 C   0  0  0  0  0  0  0  0  0  0  0  0
   38.5180   40.7740   27.4630 C   0  0  0  0  0  0  0  0  0  0  0  0
   36.2870   40.4700   29.5170 O   0  0  0  0  0  0  0  0  0  0  0  0
   38.1630   35.5130   29.1240 C   0  0  0  0  0  0  0  0  0  0  0  0
   36.6630   36.9330   29.9790 C   0  0  0  0  0  0  0  0  0  0  0  0
   36.3740   42.1670   27.5090 C   0  0  0  0  0  0  0  0  0  0  0  0
   36.1040   34.7760   31.3150 C   0  0  0  0  0  0  0  0  0  0  0  0
   37.0120   33.5620   31.1690 C   0  0  0  0  0  0  0  0  0  0  0  0
   36.3920   36.0890   30.9440 C   0  0  0  0  0  0  0  0  0  0  0  0
   39.9970   40.7310   27.0510 C   0  0  0  0  0  0  0  0  0  0  0  0
   38.2340   42.8170   25.9650 O   0  0  0  0  0  0  0  0  0  0  0  0
   37.7780   41.9370   27.1150 C   0  0  0  0  0  0  0  0  0  0  0  0
   37.7420   36.5240   29.3360 C   0  0  0  0  0  0  0  0  0  0  0  0
   37.0490   32.7330   32.4740 C   0  0  0  0  0  0  0  0  0  0  0  0
  1  6  1  0
  2  5  1  0
  2 10  2  0
  3 13  1  0
  5 12  1  0
  5  4  1  0
  6 20  1  0
  7  9  1  0
  7  1  1  0
  7  2  1  0
  8 21  1  0
  9 17  1  0
 11 20  2  0
 12 16  1  0
 15 14  1  0
 15 21  1  0
 16 14  1  0
 19 18  1  0
 19  9  1  0
 19 13  1  0
 20 12  1  0
M  END
$$$$

     RDKit          3D

 14 14  0  0  0  0  0  0  0  0999 V2000
   38.7110   33.5530   30.2210 C   0  0  0  0  0  0  0  0  0  0  0  0
   38.1640   34.7710   29.4290 C   0  0  0  0  0  0  0  0  0  0  0  0
   35.7530   40.5870   28.9910 C   0  0  0  0  0  0  0  0  0  0  0  0
   35.8880   39.1440   29.2180 C   0  0  0  0  0  0  0  0  0  0  0  0
   34.7890   38.5460   29.5210 O   0  0  0  0  0  0  0  0  0  0  0  0
   39.5240   33.8300   31.1020 O   0  0  0  0  0  0  0  0  0  0  0  0
   37.7030   40.5130   27.5610 N   0  0  0  0  0  0  0  0  0  0  0  0
   38.1700   39.1690   28.0640 C   0  0  0  0  0  0  0  0  0  0  0  0
   38.4750   41.4830   26.5670 N   0  0  0  0  0  0  0  0  0  0  0  0
   37.2250   38.4450   29.0380 C   0  0  0  0  0  0  0  0  0  0  0  0
   37.1420   37.1060   29.7860 C   0  0  0  0  0  0  0  0  0  0  0  0
   38.0150   35.9280   29.8060 C   0  0  0  0  0  0  0  0  0  0  0  0
   37.0870   41.2650   28.6720 C   0  0  0  0  0  0  0  0  0  0  0  0
   38.2960   32.2340   29.9080 O   0  0  0  0  0  0  0  0  0  0  0  0
  1  6  1  0
  2 12  1  0
  2  1  1  0
  3  4  1  0
  4  5  1  0
  7  8  1  0
  7 13  1  0
  8 10  1  0
  9  7  1  0
 10  4  1  0
 10 11  2  3
 11 12  1  0
 13  3  1  0
 14  1  2  0
M  END
$$$$

     RDKit          3D

  6  5  0  0  0  0  0  0  0  0999 V2000
   37.0140   41.5680   27.8910 S   0  0  0  0  0  0  0  0  0  0  0  0
   38.7950   39.7660   26.3960 C   0  0  0  0  0  0  0  0  0  0  0  0
   38.7140   41.2770   28.4800 C   0  0  0  0  0  0  0  0  0  0  0  0
   39.5530   40.2190   27.6420 C   0  0  0  0  0  0  0  0  0  0  0  0
   39.4370   38.9430   28.5790 O   0  0  0  0  0  0  0  0  0  0  0  0
   38.6090   39.9570   25.3750 O   0  0  0  0  0  0  0  0  0  0  0  0
  1  3  1  0
  2  4  1  0
  4  3  1  0
  4  5  1  0
  6  2  2  0
M  END
$$$$

     RDKit          3D

 28 30  0  0  0  0  0  0  0  0999 V2000
   34.3840   30.9110   34.1120 C   0  0  0  0  0  0  0  0  0  0  0  0
   36.0170   39.9680   28.4340 C   0  0  0  0  0  0  0  0  0  0  0  0
   36.4380   39.5380   29.7300 C   0  0  0  0  0  0  0  0  0  0  0  0
   40.2750   42.3020   29.3620 S   0  0  0  0  0  0  0  0  0  0  0  0
   35.3100   40.6790   25.8540 N   0  0  0  0  0  0  0  0  0  0  0  0
   36.8760   42.2930   25.8700 O   0  0  0  0  0  0  0  0  0  0  0  0
   36.6200   33.3870   30.5630 C   0  0  0  0  0  0  0  0  0  0  0  0
   41.8410   42.0910   29.1830 C   0  0  0  0  0  0  0  0  0  0  0  0
   35.3470   36.4940   30.0660 C   0  0  0  0  0  0  0  0  0  0  0  0
   36.4110   30.9240   32.1500 C   0  0  0  0  0  0  0  0  0  0  0  0
   35.5570   38.8130   30.6180 O   0  0  0  0  0  0  0  0  0  0  0  0
   39.8100   40.7550   29.6380 C   0  0  0  0  0  0  0  0  0  0  0  0
   36.7920   40.7730   27.6650 C   0  0  0  0  0  0  0  0  0  0  0  0
   39.0990   42.2230   27.9490 C   0  0  0  0  0  0  0  0  0  0  0  0
   38.0080   41.2420   28.2200 C   0  0  0  0  0  0  0  0  0  0  0  0
   35.2470   32.2240   33.8250 C   0  0  0  0  0  0  0  0  0  0  0  0
   35.2870   30.0920   31.9240 C   0  0  0  0  0  0  0  0  0  0  0  0
   35.3290   32.8620   32.5280 N   0  0  0  0  0  0  0  0  0  0  0  0
   34.6980   37.7240   30.6970 C   0  0  0  0  0  0  0  0  0  0  0  0
   33.1090   31.7950   34.1060 C   0  0  0  0  0  0  0  0  0  0  0  0
   35.9940   32.2290   31.4300 C   0  0  0  0  0  0  0  0  0  0  0  0
   33.5460   28.1520   32.2710 S   0  0  0  0  0  0  0  0  0  0  0  0
   36.1710   34.5080   30.9430 C   0  0  0  0  0  0  0  0  0  0  0  0
   38.5380   40.5850   29.2970 C   0  0  0  0  0  0  0  0  0  0  0  0
   34.4360   29.6850   33.1000 C   0  0  0  0  0  0  0  0  0  0  0  0
   37.7330   39.8000   30.1200 C   0  0  0  0  0  0  0  0  0  0  0  0
   36.3770   41.2090   26.3730 C   0  0  0  0  0  0  0  0  0  0  0  0
   35.2830   35.2940   30.9670 C   0  0  0  0  0  0  0  0  0  0  0  0
  1 20  1  0
  2  3  1  0
  3 26  2  0
  3 11  1  0
  4  8  1  0
  4 12  1  0
  5 27  1  0
  6 27  2  0
  7 23  1  0
  9 19  1  0
  9 28  1  0
 11 19  1  0
 13 15  1  0
 13  2  2  0
 14 15  1  0
 14  4  1  0
 15 24  2  0
 16  1  1  0
 17 10  1  0
 17 25  1  0
 18 16  1  0
 21  7  1  0
 21 10  1  0
 21 18  1  0
 23 28  1  0
 24 12  1  0
 24 26  1  0
 25 22  1  0
 25  1  1  0
 27 13  1  0
M  END
$$$$

     RDKit          3D

 10 10  0  0  0  0  0  0  0  0999 V2000
   39.7540   38.1670   28.9070 O   0  0  0  0  0  0  0  0  0  0  0  0
   37.6870   39.8790   29.1880 C   0  0  0  0  0  0  0  0  0  0  0  0
   36.3730   37.9530   29.6640 C   0  0  0  0  0  0  0  0  0  0  0  0
   37.5520   38.4010   29.5040 C   0  0  0  0  0  0  0  0  0  0  0  0
   38.7620   37.6510   29.4260 N   0  0  0  0  0  0  0  0  0  0  0  0
   35.1640   38.6740   30.2100 C   0  0  0  0  0  0  0  0  0  0  0  0
   36.0120   36.5690   29.2970 C   0  0  0  0  0  0  0  0  0  0  0  0
   39.0560   36.4160   29.8770 O   0  0  0  0  0  0  0  0  0  0  0  0
   35.2730   40.1040   29.6420 C   0  0  0  0  0  0  0  0  0  0  0  0
   36.6660   40.5990   30.0890 C   0  0  0  0  0  0  0  0  0  0  0  0
  1  5  2  0
  2  4  1  0
  2 10  1  0
  3  7  1  0
  3  6  1  0
  4  5  1  0
  4  3  1  0
  5  8  2  0
  9 10  1  0
  9  6  1  0
M  END
$$$$

     RDKit          3D

  9  9  0  0  0  0  0  0  0  0999 V2000
   34.5230   35.7100   32.5090 C   0  0  0  0  0  0  0  0  0  0  0  0
   33.3540   35.3430   33.0480 F   0  0  0  0  0  0  0  0  0  0  0  0
   36.6640   35.3290   31.6020 C   0  0  0  0  0  0  0  0  0  0  0  0
   34.6270   36.9690   32.0460 C   0  0  0  0  0  0  0  0  0  0  0  0
   36.6000   36.4770   30.9230 N   0  0  0  0  0  0  0  0  0  0  0  0
   35.5280   37.2400   31.0690 C   0  0  0  0  0  0  0  0  0  0  0  0
   35.5960   34.8850   32.3530 C   0  0  0  0  0  0  0  0  0  0  0  0
   33.7640   37.8700   32.5590 F   0  0  0  0  0  0  0  0  0  0  0  0
   35.3690   38.2620   30.2840 O   0  0  0  0  0  0  0  0  0  0  0  0
  1  2  1  0
  3  7  1  0
  4  1  1  0
  4  8  1  0
  5  6  1  0
  5  3  2  0
  6  4  1  0
  7  1  2  0
  9  6  2  0
M  END
$$$$

     RDKit          3D

 10  9  0  0  0  0  0  0  0  0999 V2000
   35.1470   40.3300   29.0780 C   0  0  0  0  0  0  0  0  0  0  0  0
   36.8850   38.8050   28.9810 C   0  0  0  0  0  0  0  0  0  0  0  0
   38.8440   37.9940   29.2220 C   0  0  0  0  0  0  0  0  0  0  0  0
   34.0290   40.1820   29.8540 C   0  0  0  0  0  0  0  0  0  0  0  0
   37.8820   38.4120   28.6300 N   0  0  0  0  0  0  0  0  0  0  0  0
   34.5530   38.9810   29.2770 F   0  0  0  0  0  0  0  0  0  0  0  0
   36.7060   39.8980   30.8720 O   0  0  0  0  0  0  0  0  0  0  0  0
   36.5080   40.0610   29.5590 C   0  0  0  0  0  0  0  0  0  0  0  0
   39.3870   39.5650   28.4700 S   0  0  0  0  0  0  0  0  0  0  0  0
   39.6070   36.7900   29.0880 C   0  0  0  0  0  0  0  0  0  0  0  0
  1  8  1  0
  1  4  1  0
  2  8  1  0
  3 10  1  0
  5  2  1  0
  5  3  1  0
  6  4  1  0
  8  7  1  0
  9  3  1  0
M  END
$$$$

     RDKit          3D

 14 15  0  0  0  0  0  0  0  0999 V2000
   36.9090   40.3560   31.0280 O   0  0  0  0  0  0  0  0  0  0  0  0
   35.3950   39.1010   29.7570 C   0  0  0  0  0  0  0  0  0  0  0  0
   33.5950   37.7270   31.7290 O   0  0  0  0  0  0  0  0  0  0  0  0
   38.0450   37.9650   30.0950 C   0  0  0  0  0  0  0  0  0  0  0  0
   37.8110   39.1020   29.1540 C   0  0  0  0  0  0  0  0  0  0  0  0
   39.3390   35.9310   29.9770 O   0  0  0  0  0  0  0  0  0  0  0  0
   34.5440   37.0260   31.3640 C   0  0  0  0  0  0  0  0  0  0  0  0
   36.6790   39.9330   29.6980 C   0  0  0  0  0  0  0  0  0  0  0  0
   34.6280   35.8440   31.7710 O   0  0  0  0  0  0  0  0  0  0  0  0
   35.5820   37.7050   30.4880 C   0  0  0  0  0  0  0  0  0  0  0  0
   40.1040   37.6190   28.8690 O   0  0  0  0  0  0  0  0  0  0  0  0
   36.9920   37.3380   30.7230 C   0  0  0  0  0  0  0  0  0  0  0  0
   36.3280   36.5060   29.9270 C   0  0  0  0  0  0  0  0  0  0  0  0
   39.1600   37.1560   29.6000 C   0  0  0  0  0  0  0  0  0  0  0  0
  2 10  1  0
  4 14  1  0
  4 12  1  0
  5  8  1  0
  5  4  1  0
  7  3  2  0
  7  9  1  0
  8  2  1  0
  8  1  1  0
 10 12  1  0
 10  7  1  0
 11 14  2  0
 12 13  1  0
 13 10  1  0
 14  6  1  0
M  END
$$$$

     RDKit          3D

 36 39  0  0  0  0  0  0  0  0999 V2000
   35.6070   32.5600   31.8240 C   0  0  0  0  0  0  0  0  0  0  0  0
   38.6830   40.2300   28.8710 C   0  0  0  0  0  0  0  0  0  0  0  0
   37.7040   37.6880   29.7620 C   0  0  0  0  0  0  0  0  0  0  0  0
   30.1200   36.2120   35.1030 C   0  0  0  0  0  0  0  0  0  0  0  0
   36.9870   36.6410   29.8550 N   0  0  0  0  0  0  0  0  0  0  0  0
   36.7830   40.8050   30.2820 O   0  0  0  0  0  0  0  0  0  0  0  0
   28.8610   36.8110   37.0650 N   0  0  0  0  0  0  0  0  0  0  0  0
   40.3740   40.8720   27.4870 C   0  0  0  0  0  0  0  0  0  0  0  0
   40.6020   40.4290   24.3480 C   0  0  0  0  0  0  0  0  0  0  0  0
   34.5790   34.7970   31.7850 C   0  0  0  0  0  0  0  0  0  0  0  0
   35.7010   35.2510   30.8820 C   0  0  0  0  0  0  0  0  0  0  0  0
   37.6880   40.0420   29.9950 C   0  0  0  0  0  0  0  0  0  0  0  0
   39.1960   38.9980   28.3230 C   0  0  0  0  0  0  0  0  0  0  0  0
   41.2930   43.0730   26.6750 C   0  0  0  0  0  0  0  0  0  0  0  0
   37.4750   38.7650   30.5890 C   0  0  0  0  0  0  0  0  0  0  0  0
   29.3690   36.4520   36.2470 C   0  0  0  0  0  0  0  0  0  0  0  0
   34.7280   33.3850   32.1000 N   0  0  0  0  0  0  0  0  0  0  0  0
   31.8330   35.9460   33.0800 C   0  0  0  0  0  0  0  0  0  0  0  0
   32.1970   36.6760   34.1260 C   0  0  0  0  0  0  0  0  0  0  0  0
   30.5760   35.2000   32.8750 C   0  0  0  0  0  0  0  0  0  0  0  0
   29.7520   35.1670   34.2170 C   0  0  0  0  0  0  0  0  0  0  0  0
   33.7030   37.1270   31.6890 C   0  0  0  0  0  0  0  0  0  0  0  0
   34.5610   37.3010   30.4720 C   0  0  0  0  0  0  0  0  0  0  0  0
   40.5290   41.8370   26.2780 C   0  0  0  0  0  0  0  0  0  0  0  0
   36.6440   34.2960   30.5770 N   0  0  0  0  0  0  0  0  0  0  0  0
   33.3190   35.7310   32.1310 C   0  0  0  0  0  0  0  0  0  0  0  0
   39.3630   41.3660   28.3670 O   0  0  0  0  0  0  0  0  0  0  0  0
   33.5170   34.7150   32.5180 N   0  0  0  0  0  0  0  0  0  0  0  0
   37.7010   31.9420   30.5660 C   0  0  0  0  0  0  0  0  0  0  0  0
   30.8220   33.8150   32.6240 O   0  0  0  0  0  0  0  0  0  0  0  0
   36.6380   33.0190   31.0230 C   0  0  0  0  0  0  0  0  0  0  0  0
   40.3040   41.7750   24.7590 C   0  0  0  0  0  0  0  0  0  0  0  0
   28.8990   34.1560   35.0590 C   0  0  0  0  0  0  0  0  0  0  0  0
   31.2780   36.9750   35.0340 C   0  0  0  0  0  0  0  0  0  0  0  0
   35.8700   36.6100   30.4810 N   0  0  0  0  0  0  0  0  0  0  0  0
   38.7930   37.7570   28.8870 C   0  0  0  0  0  0  0  0  0  0  0  0
  1 17  1  0
  2 27  1  0
  2 12  1  0
  3  5  1  0
  3 15  1  0
  4 16  1  0
  5 35  1  0
  8 27  1  0
  9 32  1  0
 10 17  2  0
 10 28  1  0
 11 10  1  0
 12  6  2  0
 12 15  1  0
 13  2  1  0
 13 36  2  0
 16  7  3  0
 18 19  2  0
 19 34  1  0
 20 30  1  0
 20 18  1  0
 20 21  1  0
 21 33  1  0
 21  4  1  0
 22 26  1  0
 23 35  1  0
 23 22  1  0
 24 14  1  0
 24  8  1  0
 25 11  2  0
 25 31  1  0
 26 28  1  0
 26 18  1  0
 29 31  1  0
 31  1  2  0
 32 24  1  0
 34  4  2  0
 35 11  1  0
 36  3  1  0
M  END
$$$$

     RDKit          3D

  8  9  0  0  0  0  0  0  0  0999 V2000
   38.8760   42.2370   27.1170 C   0  0  0  0  0  0  0  0  0  0  0  0
   38.8360   39.3550   27.6200 C   0  0  0  0  0  0  0  0  0  0  0  0
   39.4820   38.0050   27.8860 C   0  0  0  0  0  0  0  0  0  0  0  0
   40.1090   40.2480   27.5400 C   0  0  0  0  0  0  0  0  0  0  0  0
   38.1560   38.0410   27.8050 N   0  0  0  0  0  0  0  0  0  0  0  0
   40.0320   41.5520   27.2180 C   0  0  0  0  0  0  0  0  0  0  0  0
   37.6330   40.2340   27.4300 C   0  0  0  0  0  0  0  0  0  0  0  0
   37.7110   41.5160   27.2320 C   0  0  0  0  0  0  0  0  0  0  0  0
  1  6  1  0
  1  8  1  0
  2  7  1  0
  2  5  1  0
  2  3  1  0
  4  2  1  0
  5  3  1  0
  6  4  2  0
  8  7  2  0
M  END
$$$$

     RDKit          3D

 11 10  0  0  0  0  0  0  0  0999 V2000
   41.1430   41.2730   28.1980 O   0  0  0  0  0  0  0  0  0  0  0  0
   38.9360   39.2520   26.8150 C   0  0  0  0  0  0  0  0  0  0  0  0
   38.7620   38.5470   28.0410 O   0  0  0  0  0  0  0  0  0  0  0  0
   38.3770   41.4160   27.7230 N   0  0  0  0  0  0  0  0  0  0  0  0
   38.5390   42.7980   27.2230 C   0  0  0  0  0  0  0  0  0  0  0  0
   35.7680   41.7440   25.8820 C   0  0  0  0  0  0  0  0  0  0  0  0
   37.3320   43.5270   27.8210 C   0  0  0  0  0  0  0  0  0  0  0  0
   41.2720   39.8400   27.8890 C   0  0  0  0  0  0  0  0  0  0  0  0
   37.2230   41.3350   25.4180 C   0  0  0  0  0  0  0  0  0  0  0  0
   37.9720   40.4930   26.5550 C   0  0  0  0  0  0  0  0  0  0  0  0
   40.4070   39.5790   26.7230 C   0  0  0  0  0  0  0  0  0  0  0  0
  2  3  1  0
  5  4  1  0
  5  7  1  0
  8  1  1  0
  9  6  1  0
 10  9  1  0
 10  2  1  0
 10  4  1  0
 11  2  1  0
 11  8  1  0
M  END
$$$$

     RDKit          3D

 22 23  0  0  0  0  0  0  0  0999 V2000
   38.1670   39.8150   27.8130 C   0  0  0  0  0  0  0  0  0  0  0  0
   38.5670   35.0360   30.3190 C   0  0  0  0  0  0  0  0  0  0  0  0
   36.8960   31.4830   35.6250 C   0  0  0  0  0  0  0  0  0  0  0  0
   37.2980   34.0790   33.1070 C   0  0  0  0  0  0  0  0  0  0  0  0
   38.6990   38.5610   28.0790 C   0  0  0  0  0  0  0  0  0  0  0  0
   38.7880   31.5450   33.5130 C   0  0  0  0  0  0  0  0  0  0  0  0
   36.9820   41.8930   28.2550 O   0  0  0  0  0  0  0  0  0  0  0  0
   37.8090   38.0950   30.3000 C   0  0  0  0  0  0  0  0  0  0  0  0
   37.2860   40.6040   28.5210 C   0  0  0  0  0  0  0  0  0  0  0  0
   37.7310   37.0510   31.4790 C   0  0  0  0  0  0  0  0  0  0  0  0
   37.5370   42.6270   27.1740 C   0  0  0  0  0  0  0  0  0  0  0  0
   38.7000   37.8580   29.2150 C   0  0  0  0  0  0  0  0  0  0  0  0
   37.9300   34.9580   32.6390 N   0  0  0  0  0  0  0  0  0  0  0  0
   38.0300   43.9450   27.6210 C   0  0  0  0  0  0  0  0  0  0  0  0
   35.3870   33.0670   34.4730 C   0  0  0  0  0  0  0  0  0  0  0  0
   36.9570   39.1670   30.5400 C   0  0  0  0  0  0  0  0  0  0  0  0
   36.8820   40.2850   29.8420 C   0  0  0  0  0  0  0  0  0  0  0  0
   35.2490   31.8730   35.3740 C   0  0  0  0  0  0  0  0  0  0  0  0
   36.7280   32.9580   33.8660 C   0  0  0  0  0  0  0  0  0  0  0  0
   37.3430   31.6170   34.0500 N   0  0  0  0  0  0  0  0  0  0  0  0
   37.9070   35.7420   31.4570 C   0  0  0  0  0  0  0  0  0  0  0  0
   36.8940   44.8580   28.0700 C   0  0  0  0  0  0  0  0  0  0  0  0
  1  5  2  0
  1  9  1  0
  5 12  1  0
  6 20  1  0
  8 16  1  0
  8 10  1  0
  9  7  1  0
  9 17  1  0
 11 14  1  0
 11  7  1  0
 12  8  2  0
 13  4  1  0
 14 22  1  0
 15 18  1  0
 17 16  2  0
 18  3  1  0
 19  4  1  0
 19 20  1  0
 19 15  1  0
 20  3  1  0
 21  2  1  0
 21 10  1  0
 21 13  1  0
M  END
$$$$

     RDKit          3D

 11 12  0  0  0  0  0  0  0  0999 V2000
   37.1530   36.7190   29.3420 C   0  0  0  0  0  0  0  0  0  0  0  0
   37.4960   39.8280   27.5730 C   0  0  0  0  0  0  0  0  0  0  0  0
   38.4140   40.6500   26.1640 Br  0  0  0  0  0  0  0  0  0  0  0  0
   39.3780   38.1730   28.5070 S   0  0  0  0  0  0  0  0  0  0  0  0
   37.8650   38.7650   28.1410 C   0  0  0  0  0  0  0  0  0  0  0  0
   36.3570   40.1400   28.1590 O   0  0  0  0  0  0  0  0  0  0  0  0
   36.7030   37.9650   28.5580 C   0  0  0  0  0  0  0  0  0  0  0  0
   39.3800   36.0690   30.0810 O   0  0  0  0  0  0  0  0  0  0  0  0
   35.9600   38.8990   28.9040 N   0  0  0  0  0  0  0  0  0  0  0  0
   34.6800   39.0910   29.5750 C   0  0  0  0  0  0  0  0  0  0  0  0
   38.5680   36.8340   29.2690 C   0  0  0  0  0  0  0  0  0  0  0  0
  2  3  1  0
  2  5  1  0
  2  6  1  0
  4 11  1  0
  5  4  1  0
  5  7  1  0
  6  9  1  0
  7  9  1  0
  7  1  1  0
  9 10  1  0
 11  1  1  0
 11  8  2  0
M  END
$$$$

     RDKit          3D

 23 23  0  0  0  0  0  0  0  0999 V2000
   32.7610   36.4030   28.6970 N   0  0  0  0  0  0  0  0  0  0  0  0
   36.5200   33.6700   31.4780 N   0  0  0  0  0  0  0  0  0  0  0  0
   39.1940   38.3410   28.9750 C   0  0  0  0  0  0  0  0  0  0  0  0
   38.6920   37.1450   29.0700 N   0  0  0  0  0  0  0  0  0  0  0  0
   33.0560   35.4890   29.6040 C   0  0  0  0  0  0  0  0  0  0  0  0
   38.3940   40.5090   28.1690 C   0  0  0  0  0  0  0  0  0  0  0  0
   34.2440   34.6220   30.1190 C   0  0  0  0  0  0  0  0  0  0  0  0
   33.3070   32.9370   34.0220 O   0  0  0  0  0  0  0  0  0  0  0  0
   38.6320   41.6290   28.8250 F   0  0  0  0  0  0  0  0  0  0  0  0
   37.6550   36.6200   29.7080 C   0  0  0  0  0  0  0  0  0  0  0  0
   33.9240   31.2630   32.8070 O   0  0  0  0  0  0  0  0  0  0  0  0
   37.9080   35.1260   30.0870 C   0  0  0  0  0  0  0  0  0  0  0  0
   34.1180   33.6140   31.1910 C   0  0  0  0  0  0  0  0  0  0  0  0
   40.4600   38.4510   28.6950 O   0  0  0  0  0  0  0  0  0  0  0  0
   39.0920   40.2970   27.0800 F   0  0  0  0  0  0  0  0  0  0  0  0
   38.5670   39.5660   29.1620 N   0  0  0  0  0  0  0  0  0  0  0  0
   33.0140   33.0340   31.7770 N   0  0  0  0  0  0  0  0  0  0  0  0
   37.1820   40.4420   27.8700 F   0  0  0  0  0  0  0  0  0  0  0  0
   35.3400   33.3930   31.9140 C   0  0  0  0  0  0  0  0  0  0  0  0
   35.4910   34.9420   29.6970 N   0  0  0  0  0  0  0  0  0  0  0  0
   33.2180   32.2610   32.8670 C   0  0  0  0  0  0  0  0  0  0  0  0
   38.3850   34.2270   29.1810 O   0  0  0  0  0  0  0  0  0  0  0  0
   36.5520   34.5370   30.4080 C   0  0  0  0  0  0  0  0  0  0  0  0
  1  5  2  0
  2 19  1  0
  3  4  1  0
  3 16  1  0
  4 10  1  0
  6  9  1  0
  6 16  1  0
  7  5  1  0
  7 13  1  0
 10 12  1  0
 11 21  2  0
 12 22  1  0
 12 23  1  0
 13 17  2  3
 13 19  1  0
 14  3  2  0
 15  6  1  0
 17 21  1  0
 18  6  1  0
 20  7  1  0
 20 23  1  0
 21  8  1  0
 23  2  2  0
M  END
$$$$

     RDKit          3D

 21 22  0  0  0  0  0  0  0  0999 V2000
   32.3240   34.4430   33.1280 N   0  0  0  0  0  0  0  0  0  0  0  0
   35.6480   35.8080   31.1730 O   0  0  0  0  0  0  0  0  0  0  0  0
   38.6240   42.7000   27.5390 O   0  0  0  0  0  0  0  0  0  0  0  0
   35.1810   37.9390   30.5530 C   0  0  0  0  0  0  0  0  0  0  0  0
   38.6260   39.0940   29.2190 C   0  0  0  0  0  0  0  0  0  0  0  0
   37.3140   36.7720   29.7640 C   0  0  0  0  0  0  0  0  0  0  0  0
   38.5700   36.7710   29.1970 C   0  0  0  0  0  0  0  0  0  0  0  0
   34.8180   36.8430   31.5870 C   0  0  0  0  0  0  0  0  0  0  0  0
   32.8910   35.7780   33.0750 N   0  0  0  0  0  0  0  0  0  0  0  0
   33.5200   36.0360   31.9290 C   0  0  0  0  0  0  0  0  0  0  0  0
   37.5920   42.0090   27.9970 C   0  0  0  0  0  0  0  0  0  0  0  0
   32.5290   33.9970   31.6480 C   0  0  0  0  0  0  0  0  0  0  0  0
   32.9870   35.2540   30.9090 C   0  0  0  0  0  0  0  0  0  0  0  0
   36.6050   37.9790   30.0050 C   0  0  0  0  0  0  0  0  0  0  0  0
   37.3630   39.0940   29.6770 C   0  0  0  0  0  0  0  0  0  0  0  0
   39.2000   37.9540   28.8510 C   0  0  0  0  0  0  0  0  0  0  0  0
   31.2890   34.7460   34.3610 C   0  0  0  0  0  0  0  0  0  0  0  0
   37.5100   40.2150   29.7170 N   0  0  0  0  0  0  0  0  0  0  0  0
   36.4770   41.8500   27.5420 O   0  0  0  0  0  0  0  0  0  0  0  0
   38.0680   41.5540   29.3400 C   0  0  0  0  0  0  0  0  0  0  0  0
   34.6700   39.1780   30.9330 O   0  0  0  0  0  0  0  0  0  0  0  0
  1 17  1  0
  3 11  2  0
  4 21  1  0
  4  8  1  0
  5 15  1  0
  6 14  1  0
  7  6  2  0
  8  2  1  0
  9  1  1  0
 10  8  1  0
 10  9  1  0
 11 20  1  0
 12  1  1  0
 13 12  1  0
 13 10  1  0
 14  4  1  0
 15 18  1  0
 15 14  2  0
 16  7  1  0
 16  5  2  0
 19 11  1  0
 20 18  1  0
M  END
$$$$

     RDKit          3D

 29 30  0  0  0  0  0  0  0  0999 V2000
   38.3020   38.1040   29.3590 C   0  0  0  0  0  0  0  0  0  0  0  0
   36.0730   38.6860   30.0030 C   0  0  0  0  0  0  0  0  0  0  0  0
   40.5040   43.8480   28.7320 O   0  0  0  0  0  0  0  0  0  0  0  0
   37.3230   39.0560   29.6970 C   0  0  0  0  0  0  0  0  0  0  0  0
   37.7180   41.4860   27.3820 S   0  0  0  0  0  0  0  0  0  0  0  0
   37.7220   40.3560   30.0120 N   0  0  0  0  0  0  0  0  0  0  0  0
   38.0220   40.5710   31.4370 C   0  0  0  0  0  0  0  0  0  0  0  0
   38.0370   36.7530   29.4350 C   0  0  0  0  0  0  0  0  0  0  0  0
   34.5030   31.0770   30.8810 O   0  0  0  0  0  0  0  0  0  0  0  0
   31.3610   32.8310   29.6490 C   0  0  0  0  0  0  0  0  0  0  0  0
   39.6120   44.2270   26.4000 C   0  0  0  0  0  0  0  0  0  0  0  0
   34.0660   37.0790   29.7450 S   0  0  0  0  0  0  0  0  0  0  0  0
   36.7210   36.3770   29.7070 C   0  0  0  0  0  0  0  0  0  0  0  0
   35.7650   37.3550   29.8250 C   0  0  0  0  0  0  0  0  0  0  0  0
   30.0440   33.5710   29.3150 C   0  0  0  0  0  0  0  0  0  0  0  0
   39.1510   42.1990   27.8270 C   0  0  0  0  0  0  0  0  0  0  0  0
   31.2120   31.6810   29.9850 O   0  0  0  0  0  0  0  0  0  0  0  0
   34.6380   32.6620   28.2670 C   0  0  0  0  0  0  0  0  0  0  0  0
   40.0590   43.1450   27.2810 C   0  0  0  0  0  0  0  0  0  0  0  0
   29.8610   33.3910   28.0510 C   0  0  0  0  0  0  0  0  0  0  0  0
   34.1800   35.3830   30.1040 C   0  0  0  0  0  0  0  0  0  0  0  0
   38.0080   41.1310   29.0280 C   0  0  0  0  0  0  0  0  0  0  0  0
   32.7880   34.8370   30.0190 C   0  0  0  0  0  0  0  0  0  0  0  0
   39.3940   41.7620   29.3060 C   0  0  0  0  0  0  0  0  0  0  0  0
   34.5750   32.4520   30.7470 C   0  0  0  0  0  0  0  0  0  0  0  0
   31.9570   35.2520   30.9030 O   0  0  0  0  0  0  0  0  0  0  0  0
   32.6540   33.4540   29.6160 C   0  0  0  0  0  0  0  0  0  0  0  0
   41.5020   43.0850   27.1360 C   0  0  0  0  0  0  0  0  0  0  0  0
   33.8580   32.7830   29.5200 C   0  0  0  0  0  0  0  0  0  0  0  0
  1  8  2  0
  1  4  1  0
  4  2  2  0
  4  6  1  0
  5 16  1  0
  5 22  1  0
  6  7  1  0
  8 13  1  0
 10 17  2  0
 11 19  1  0
 12 14  1  0
 12 21  1  0
 13 14  2  0
 14  2  1  0
 15 10  1  0
 16 19  1  0
 16 24  1  0
 19  3  1  0
 20 15  1  0
 22 24  1  0
 22  6  1  0
 23 21  1  0
 23 26  2  0
 25  9  1  0
 27 10  1  0
 27 23  1  0
 28 19  1  0
 29 18  1  0
 29 27  1  0
 29 25  1  0
M  END
$$$$

     RDKit          3D

  6  6  0  0  0  0  0  0  0  0999 V2000
   38.1480   36.8170   28.5470 O   0  0  0  0  0  0  0  0  0  0  0  0
   37.8560   40.6970   28.5160 O   0  0  0  0  0  0  0  0  0  0  0  0
   39.2440   38.9320   27.5830 C   0  0  0  0  0  0  0  0  0  0  0  0
   38.3410   38.1690   28.3580 C   0  0  0  0  0  0  0  0  0  0  0  0
   39.3770   37.5100   29.1180 C   0  0  0  0  0  0  0  0  0  0  0  0
   37.5140   39.2340   29.0010 N   0  0  0  0  0  0  0  0  0  0  0  0
  1  5  1  0
  2  6  1  0
  4  3  1  0
  4  1  1  0
  4  6  1  0
  4  5  1  0
M  END
$$$$
