
     RDKit          3D

 33 40  0  0  0  0  0  0  0  0999 V2000
   37.1840   39.7350   30.5460 C   0  0  0  0  0  0  0  0  0  0  0  0
   32.7100   33.2980   31.8710 N   0  0  0  0  0  0  0  0  0  0  0  0
   36.2460   40.6450   30.6870 C   0  0  0  0  0  0  0  0  0  0  0  0
   34.0310   35.9790   32.0330 C   0  0  0  0  0  0  0  0  0  0  0  0
   35.1940   40.2780   31.4700 C   0  0  0  0  0  0  0  0  0  0  0  0
   35.2890   36.6190   31.6240 C   0  0  0  0  0  0  0  0  0  0  0  0
   36.9130   38.4130   30.7670 C   0  0  0  0  0  0  0  0  0  0  0  0
   38.0610   42.5290   29.5200 O   0  0  0  0  0  0  0  0  0  0  0  0
   33.6890   33.6510   32.8100 C   0  0  0  0  0  0  0  0  0  0  0  0
   33.0010   36.6960   31.6380 O   0  0  0  0  0  0  0  0  0  0  0  0
   33.8340   29.0590   32.1810 O   0  0  0  0  0  0  0  0  0  0  0  0
   34.0990   32.4250   33.4060 C   0  0  0  0  0  0  0  0  0  0  0  0
   40.8900   43.6000   30.1030 C   0  0  0  0  0  0  0  0  0  0  0  0
   44.2980   43.0700   29.1450 N   0  0  0  0  0  0  0  0  0  0  0  0
   40.4240   42.3340   29.5230 C   0  0  0  0  0  0  0  0  0  0  0  0
   35.0380   32.1860   33.5120 C   0  0  0  0  0  0  0  0  0  0  0  0
   35.1190   35.4690   33.9420 O   0  0  0  0  0  0  0  0  0  0  0  0
   32.7760   31.8860   31.5780 C   0  0  0  0  0  0  0  0  0  0  0  0
   33.4510   31.3340   32.8500 C   0  0  0  0  0  0  0  0  0  0  0  0
   34.1550   30.0200   32.8770 C   0  0  0  0  0  0  0  0  0  0  0  0
   41.4760   41.5160   28.8560 C   0  0  0  0  0  0  0  0  0  0  0  0
   33.8920   35.0330   33.3030 C   0  0  0  0  0  0  0  0  0  0  0  0
   39.0580   41.7300   29.5700 C   0  0  0  0  0  0  0  0  0  0  0  0
   36.0740   30.9100   33.6640 C   0  0  0  0  0  0  0  0  0  0  0  0
   35.7440   38.0200   31.3970 C   0  0  0  0  0  0  0  0  0  0  0  0
   38.4810   40.3090   30.0490 C   0  0  0  0  0  0  0  0  0  0  0  0
   34.8720   39.0270   31.8280 C   0  0  0  0  0  0  0  0  0  0  0  0
   34.9530   36.6090   33.0370 C   0  0  0  0  0  0  0  0  0  0  0  0
   39.0490   39.6110   29.6350 O   0  0  0  0  0  0  0  0  0  0  0  0
   43.1920   42.9590   29.9200 C   0  0  0  0  0  0  0  0  0  0  0  0
   35.2820   29.6920   33.7090 C   0  0  0  0  0  0  0  0  0  0  0  0
   42.6640   42.3500   28.6710 C   0  0  0  0  0  0  0  0  0  0  0  0
   42.2550   43.6230   30.6330 C   0  0  0  0  0  0  0  0  0  0  0  0
  1  3  2  0
  1  7  1  0
  3  5  1  0
  4 10  1  0
  4 28  1  0
  4 22  1  0
  5 27  2  0
  6 25  1  0
  6  4  1  0
  6 28  1  0
  7 25  2  0
  8 23  2  0
  9  2  1  0
  9 22  1  0
  9 12  1  0
 11 20  2  0
 12 16  1  0
 13 33  1  0
 14 30  1  0
 15 23  1  0
 15 13  1  0
 16 24  1  0
 18  2  1  0
 19 18  1  0
 19 20  1  0
 19 12  1  0
 20 31  1  0
 21 15  1  0
 22 17  1  0
 23 26  1  0
 24 31  1  0
 25 27  1  0
 26  1  1  0
 28 22  1  0
 28 17  1  0
 29 26  2  0
 30 33  1  0
 32 21  1  0
 32 14  1  0
 32 30  1  0
M  END
$$$$

     RDKit          3D

 18 17  0  0  0  0  0  0  0  0999 V2000
   29.3020   34.6110   37.1420 N   0  0  0  0  0  0  0  0  0  0  0  0
   29.7620   34.5080   35.7850 N   0  0  0  0  0  0  0  0  0  0  0  0
   38.8430   41.8800   30.7980 C   0  0  0  0  0  0  0  0  0  0  0  0
   37.5650   44.3100   29.2890 C   0  0  0  0  0  0  0  0  0  0  0  0
   35.9450   40.5690   29.3290 C   0  0  0  0  0  0  0  0  0  0  0  0
   36.1120   38.4270   30.8550 C   0  0  0  0  0  0  0  0  0  0  0  0
   32.1420   35.4750   33.5160 C   0  0  0  0  0  0  0  0  0  0  0  0
   34.5330   36.5340   33.0560 C   0  0  0  0  0  0  0  0  0  0  0  0
   32.9870   36.6420   32.9520 C   0  0  0  0  0  0  0  0  0  0  0  0
   32.1080   35.4030   35.1530 C   0  0  0  0  0  0  0  0  0  0  0  0
   35.8320   39.9430   30.7590 C   0  0  0  0  0  0  0  0  0  0  0  0
   36.6160   41.7980   29.4860 N   0  0  0  0  0  0  0  0  0  0  0  0
   31.1330   33.9070   35.3580 C   0  0  0  0  0  0  0  0  0  0  0  0
   39.2240   43.1500   27.7920 C   0  0  0  0  0  0  0  0  0  0  0  0
   35.2150   37.5530   31.8970 C   0  0  0  0  0  0  0  0  0  0  0  0
   38.0580   41.8000   29.4740 C   0  0  0  0  0  0  0  0  0  0  0  0
   34.6490   41.0370   28.7040 C   0  0  0  0  0  0  0  0  0  0  0  0
   37.8930   43.0120   28.5480 C   0  0  0  0  0  0  0  0  0  0  0  0
  2  1  1  0
  5 17  1  0
  5 12  1  0
  5 11  1  0
  6 15  1  0
  7 10  1  0
  9  8  1  0
  9  7  1  0
 10 13  1  0
 11  6  1  0
 13  2  1  0
 14 18  1  0
 15  8  1  0
 16 12  1  0
 16  3  1  0
 18  4  1  0
 18 16  1  0
M  END
$$$$

     RDKit          3D

 12 11  0  0  0  0  0  0  0  0999 V2000
   33.6690   37.2190   30.8930 C   0  0  0  0  0  0  0  0  0  0  0  0
   34.0600   38.8820   29.0930 C   0  0  0  0  0  0  0  0  0  0  0  0
   33.9590   38.6630   30.5420 C   0  0  0  0  0  0  0  0  0  0  0  0
   34.1500   36.9510   32.3130 C   0  0  0  0  0  0  0  0  0  0  0  0
   33.5780   40.9460   27.9610 O   0  0  0  0  0  0  0  0  0  0  0  0
   36.0730   33.6610   32.9610 C   0  0  0  0  0  0  0  0  0  0  0  0
   34.9470   38.0520   32.7020 O   0  0  0  0  0  0  0  0  0  0  0  0
   36.1300   35.2000   32.5040 C   0  0  0  0  0  0  0  0  0  0  0  0
   35.3670   40.9930   29.0920 N   0  0  0  0  0  0  0  0  0  0  0  0
   34.7440   35.6400   32.6890 C   0  0  0  0  0  0  0  0  0  0  0  0
   34.2310   40.2100   28.6630 C   0  0  0  0  0  0  0  0  0  0  0  0
   36.4110   35.5470   31.1530 O   0  0  0  0  0  0  0  0  0  0  0  0
  1  4  1  0
  2  3  1  0
  3  1  1  0
  4 10  1  0
  4  7  1  0
  5 11  2  0
  8 10  1  0
  8  6  1  0
 11  9  1  0
 11  2  1  0
 12  8  1  0
M  END
$$$$

     RDKit          3D

 22 23  0  0  0  0  0  0  0  0999 V2000
   33.0830   35.2370   35.0760 C   0  0  0  0  0  0  0  0  0  0  0  0
   39.7220   41.5770   32.9990 C   0  0  0  0  0  0  0  0  0  0  0  0
   37.4170   36.7580   32.8130 C   0  0  0  0  0  0  0  0  0  0  0  0
   40.5290   38.7540   29.1700 C   0  0  0  0  0  0  0  0  0  0  0  0
   35.0270   36.1650   33.0330 C   0  0  0  0  0  0  0  0  0  0  0  0
   38.0160   42.4170   30.1060 C   0  0  0  0  0  0  0  0  0  0  0  0
   32.5390   36.2820   35.3050 O   0  0  0  0  0  0  0  0  0  0  0  0
   34.4460   34.8310   35.1760 C   0  0  0  0  0  0  0  0  0  0  0  0
   36.7220   35.4680   34.7520 C   0  0  0  0  0  0  0  0  0  0  0  0
   40.1040   41.8020   31.4890 C   0  0  0  0  0  0  0  0  0  0  0  0
   36.0650   37.0360   32.4180 C   0  0  0  0  0  0  0  0  0  0  0  0
   38.4610   37.2300   32.0470 O   0  0  0  0  0  0  0  0  0  0  0  0
   32.5300   34.2080   33.8310 C   0  0  0  0  0  0  0  0  0  0  0  0
   38.8980   41.4270   30.7800 C   0  0  0  0  0  0  0  0  0  0  0  0
   38.5340   38.4400   31.3170 C   0  0  0  0  0  0  0  0  0  0  0  0
   40.3630   43.3090   31.3700 C   0  0  0  0  0  0  0  0  0  0  0  0
   40.5250   39.6000   30.4020 C   0  0  0  0  0  0  0  0  0  0  0  0
   40.0290   38.9700   31.5950 C   0  0  0  0  0  0  0  0  0  0  0  0
   37.7550   36.0140   33.9690 C   0  0  0  0  0  0  0  0  0  0  0  0
   35.3170   35.5980   34.2710 C   0  0  0  0  0  0  0  0  0  0  0  0
   39.4300   39.0770   28.2930 N   0  0  0  0  0  0  0  0  0  0  0  0
   40.2270   41.0670   30.0860 C   0  0  0  0  0  0  0  0  0  0  0  0
  1  8  1  0
  1  7  2  0
  3 19  1  0
  5 20  2  0
 10  2  1  0
 11  3  2  0
 11  5  1  0
 12  3  1  0
 13  1  1  0
 14  6  1  0
 14 10  1  0
 15 18  1  0
 15 12  1  0
 16 10  1  0
 17  4  1  0
 17 18  1  0
 19  9  2  0
 20  9  1  0
 20  8  1  0
 21  4  1  0
 22 17  1  0
 22 14  1  0
 22 10  1  0
M  END
$$$$

     RDKit          3D

  8  7  0  0  0  0  0  0  0  0999 V2000
   40.3580   40.1870   28.1560 O   0  0  0  0  0  0  0  0  0  0  0  0
   38.1550   40.7110   26.5890 C   0  0  0  0  0  0  0  0  0  0  0  0
   41.6570   41.6410   28.9880 O   0  0  0  0  0  0  0  0  0  0  0  0
   38.3860   42.0710   27.1510 C   0  0  0  0  0  0  0  0  0  0  0  0
   39.3250   43.3050   29.2180 C   0  0  0  0  0  0  0  0  0  0  0  0
   39.5360   42.3560   28.1020 C   0  0  0  0  0  0  0  0  0  0  0  0
   37.4770   43.0390   26.9960 C   0  0  0  0  0  0  0  0  0  0  0  0
   40.6110   41.3890   28.3450 C   0  0  0  0  0  0  0  0  0  0  0  0
  1  8  2  0
  2  4  1  0
  4  6  1  0
  6  8  1  0
  6  5  1  0
  7  4  2  0
  8  3  1  0
M  END
$$$$

     RDKit          3D

 10 11  0  0  0  0  0  0  0  0999 V2000
   33.8980   38.1100   33.2070 F   0  0  0  0  0  0  0  0  0  0  0  0
   36.4970   37.1000   31.5730 C   0  0  0  0  0  0  0  0  0  0  0  0
   37.1680   35.9070   31.1450 C   0  0  0  0  0  0  0  0  0  0  0  0
   34.2110   37.2970   32.3060 C   0  0  0  0  0  0  0  0  0  0  0  0
   33.6450   37.8310   31.1280 F   0  0  0  0  0  0  0  0  0  0  0  0
   35.5790   37.3480   32.1880 N   0  0  0  0  0  0  0  0  0  0  0  0
   36.9970   37.9280   30.6110 C   0  0  0  0  0  0  0  0  0  0  0  0
   36.8610   39.1360   30.3740 N   0  0  0  0  0  0  0  0  0  0  0  0
   33.7000   36.0990   32.3470 F   0  0  0  0  0  0  0  0  0  0  0  0
   37.8550   36.9100   30.2470 N   0  0  0  0  0  0  0  0  0  0  0  0
  2  6  1  0
  3  2  1  0
  4  9  1  0
  4  1  1  0
  5  4  1  0
  6  4  1  0
  7  2  1  0
  8  7  2  0
 10  7  1  0
 10  3  1  0
 10  2  1  0
M  END
$$$$

     RDKit          3D

  9 10  0  0  0  0  0  0  0  0999 V2000
   37.8140   42.3570   28.9870 O   0  0  0  0  0  0  0  0  0  0  0  0
   39.6890   44.1930   29.7360 N   0  0  0  0  0  0  0  0  0  0  0  0
   40.2040   39.4010   27.6950 C   0  0  0  0  0  0  0  0  0  0  0  0
   39.0710   39.8930   28.6570 C   0  0  0  0  0  0  0  0  0  0  0  0
   40.0910   40.7920   28.2640 C   0  0  0  0  0  0  0  0  0  0  0  0
   40.1060   43.0520   29.1040 C   0  0  0  0  0  0  0  0  0  0  0  0
   41.1560   40.9580   29.1640 O   0  0  0  0  0  0  0  0  0  0  0  0
   38.9250   42.2200   28.8880 C   0  0  0  0  0  0  0  0  0  0  0  0
   41.3490   42.3370   29.5760 C   0  0  0  0  0  0  0  0  0  0  0  0
  3  5  1  0
  3  4  1  0
  5  4  1  0
  5  8  1  0
  5  7  1  0
  6  9  1  0
  6  2  1  0
  7  9  1  0
  8  1  2  0
  8  6  1  0
M  END
$$$$

     RDKit          3D

 14 15  0  0  0  0  0  0  0  0999 V2000
   37.4020   40.1550   33.1820 S   0  0  0  0  0  0  0  0  0  0  0  0
   40.1320   40.8170   36.6610 C   0  0  0  0  0  0  0  0  0  0  0  0
   39.0140   40.4630   32.9540 C   0  0  0  0  0  0  0  0  0  0  0  0
   39.5370   38.3130   35.0870 S   0  0  0  0  0  0  0  0  0  0  0  0
   41.0270   40.9640   33.9520 O   0  0  0  0  0  0  0  0  0  0  0  0
   37.2340   37.7110   31.4050 C   0  0  0  0  0  0  0  0  0  0  0  0
   37.8830   36.5300   31.9590 O   0  0  0  0  0  0  0  0  0  0  0  0
   39.2700   40.4980   35.4450 C   0  0  0  0  0  0  0  0  0  0  0  0
   36.9960   38.8060   32.4170 C   0  0  0  0  0  0  0  0  0  0  0  0
   39.3670   39.4480   32.2190 C   0  0  0  0  0  0  0  0  0  0  0  0
   38.7230   39.1920   30.9390 C   0  0  0  0  0  0  0  0  0  0  0  0
   38.0560   40.5630   30.5900 N   0  0  0  0  0  0  0  0  0  0  0  0
   37.6700   37.5520   32.8540 C   0  0  0  0  0  0  0  0  0  0  0  0
   39.8520   40.7030   34.2010 C   0  0  0  0  0  0  0  0  0  0  0  0
  3 10  1  0
  3  1  1  0
  3 14  1  0
  4  8  1  0
  5 14  2  0
  6  7  1  0
  6  9  1  0
  6 13  1  0
  8  2  1  0
  9 13  1  0
  9  1  1  0
 11 10  1  0
 12 11  1  0
 13  7  1  0
 14  8  1  0
M  END
$$$$

     RDKit          3D

 11 12  0  0  0  0  0  0  0  0999 V2000
   39.0830   41.1360   29.7820 C   0  0  0  0  0  0  0  0  0  0  0  0
   40.3730   40.4880   29.3980 N   0  0  0  0  0  0  0  0  0  0  0  0
   40.9650   41.0820   28.1730 C   0  0  0  0  0  0  0  0  0  0  0  0
   38.6010   38.2180   31.3930 S   0  0  0  0  0  0  0  0  0  0  0  0
   38.8370   39.9100   32.0130 C   0  0  0  0  0  0  0  0  0  0  0  0
   38.6390   40.8830   31.0730 C   0  0  0  0  0  0  0  0  0  0  0  0
   40.5050   39.0280   29.3070 C   0  0  0  0  0  0  0  0  0  0  0  0
   38.5610   42.1290   29.2510 O   0  0  0  0  0  0  0  0  0  0  0  0
   40.1770   36.7570   29.8250 C   0  0  0  0  0  0  0  0  0  0  0  0
   37.4680   40.5070   31.8340 N   0  0  0  0  0  0  0  0  0  0  0  0
   39.9760   38.1430   30.2420 C   0  0  0  0  0  0  0  0  0  0  0  0
  2  1  1  0
  3  2  1  0
  5  4  1  0
  6  1  1  0
  6 10  1  0
  6  5  1  0
  7  2  1  0
  7 11  1  0
  8  1  2  0
 10  5  1  0
 11  9  1  0
 11  4  1  0
M  END
$$$$

     RDKit          3D

  8  9  0  0  0  0  0  0  0  0999 V2000
   39.6600   40.1250   30.7430 N   0  0  0  0  0  0  0  0  0  0  0  0
   39.2570   41.3350   30.0640 C   0  0  0  0  0  0  0  0  0  0  0  0
   38.7650   39.5190   28.6890 C   0  0  0  0  0  0  0  0  0  0  0  0
   39.8030   37.8640   30.0870 N   0  0  0  0  0  0  0  0  0  0  0  0
   38.4910   40.8170   28.8650 C   0  0  0  0  0  0  0  0  0  0  0  0
   39.3310   39.0590   29.9680 C   0  0  0  0  0  0  0  0  0  0  0  0
   40.2880   42.3090   30.6460 O   0  0  0  0  0  0  0  0  0  0  0  0
   38.6070   42.0220   28.9220 O   0  0  0  0  0  0  0  0  0  0  0  0
  2  7  1  0
  2  1  1  0
  3  6  1  0
  5  3  1  0
  5  8  1  0
  5  2  1  0
  6  4  2  0
  6  1  1  0
  8  2  1  0
M  END
$$$$

     RDKit          3D

 10 11  0  0  0  0  0  0  0  0999 V2000
   34.3770   37.6700   29.9650 C   0  0  0  0  0  0  0  0  0  0  0  0
   38.9660   39.8760   29.4520 C   0  0  0  0  0  0  0  0  0  0  0  0
   40.5100   40.4450   28.1860 I   0  0  0  0  0  0  0  0  0  0  0  0
   33.7470   38.6240   30.8910 N   0  0  0  0  0  0  0  0  0  0  0  0
   37.7930   38.3610   30.5690 C   0  0  0  0  0  0  0  0  0  0  0  0
   36.7660   40.2290   30.3710 C   0  0  0  0  0  0  0  0  0  0  0  0
   37.9460   40.6980   29.8730 C   0  0  0  0  0  0  0  0  0  0  0  0
   35.2200   38.3020   30.9940 C   0  0  0  0  0  0  0  0  0  0  0  0
   38.9340   38.6100   29.8960 C   0  0  0  0  0  0  0  0  0  0  0  0
   36.6070   38.8950   30.6810 C   0  0  0  0  0  0  0  0  0  0  0  0
  1  4  1  0
  1  8  1  0
  2  3  1  0
  2  7  1  0
  2  9  1  0
  4  8  1  0
  5 10  1  0
  6 10  2  0
  7  6  1  0
  8 10  1  0
  9  5  1  0
M  END
$$$$

     RDKit          3D

 10 10  0  0  0  0  0  0  0  0999 V2000
   39.2290   40.1540   32.7750 O   0  0  0  0  0  0  0  0  0  0  0  0
   36.0030   36.1600   33.6200 C   0  0  0  0  0  0  0  0  0  0  0  0
   34.6200   35.7360   34.0860 C   0  0  0  0  0  0  0  0  0  0  0  0
   36.3120   35.3830   32.3540 N   0  0  0  0  0  0  0  0  0  0  0  0
   37.4730   36.2160   34.6770 S   0  0  0  0  0  0  0  0  0  0  0  0
   39.3390   38.9270   32.6020 C   0  0  0  0  0  0  0  0  0  0  0  0
   40.3480   38.3320   32.2140 O   0  0  0  0  0  0  0  0  0  0  0  0
   34.9630   37.0660   33.5400 O   0  0  0  0  0  0  0  0  0  0  0  0
   38.2350   38.0110   32.7000 C   0  0  0  0  0  0  0  0  0  0  0  0
   38.2700   37.7400   34.2110 C   0  0  0  0  0  0  0  0  0  0  0  0
  2  4  1  0
  2  3  1  0
  2  5  1  0
  6  9  1  0
  6  1  1  0
  7  6  2  0
  8  2  1  0
  8  3  1  0
  9 10  1  0
 10  5  1  0
M  END
$$$$

     RDKit          3D

  4  3  0  0  0  0  0  0  0  0999 V2000
   40.6140   39.9180   27.1360 C   0  0  0  0  0  0  0  0  0  0  0  0
   41.3710   39.0880   28.0950 C   0  0  0  0  0  0  0  0  0  0  0  0
   41.0870   41.4050   27.0720 C   0  0  0  0  0  0  0  0  0  0  0  0
   39.7590   39.3860   26.3030 C   0  0  0  0  0  0  0  0  0  0  0  0
  1  2  1  0
  3  1  1  0
  4  1  2  0
M  END
$$$$

     RDKit          3D

 11 12  0  0  0  0  0  0  0  0999 V2000
   37.8590   39.8000   30.3530 C   0  0  0  0  0  0  0  0  0  0  0  0
   35.6360   36.7300   32.1640 C   0  0  0  0  0  0  0  0  0  0  0  0
   36.2600   37.9550   31.6560 C   0  0  0  0  0  0  0  0  0  0  0  0
   36.6150   35.7470   31.7160 N   0  0  0  0  0  0  0  0  0  0  0  0
   38.1080   38.4410   30.0880 C   0  0  0  0  0  0  0  0  0  0  0  0
   36.9600   40.2220   31.3370 C   0  0  0  0  0  0  0  0  0  0  0  0
   34.5210   35.8930   32.7580 C   0  0  0  0  0  0  0  0  0  0  0  0
   34.2910   36.1940   34.1810 O   0  0  0  0  0  0  0  0  0  0  0  0
   35.8570   39.2940   31.8050 C   0  0  0  0  0  0  0  0  0  0  0  0
   37.6000   36.2120   30.9200 N   0  0  0  0  0  0  0  0  0  0  0  0
   37.4290   37.5750   30.8590 C   0  0  0  0  0  0  0  0  0  0  0  0
  1  6  1  0
  2  7  1  0
  3  9  1  0
  3  2  2  0
  4  2  1  0
  5  1  2  0
  5 11  1  0
  6  9  1  0
  7  8  1  0
 10  4  1  0
 11 10  2  0
 11  3  1  0
M  END
$$$$

     RDKit          3D

 14 15  0  0  0  0  0  0  0  0999 V2000
   33.7130   38.4460   31.7400 C   0  0  0  0  0  0  0  0  0  0  0  0
   36.1290   38.2250   32.3770 C   0  0  0  0  0  0  0  0  0  0  0  0
   39.1190   38.9610   33.7640 C   0  0  0  0  0  0  0  0  0  0  0  0
   34.7880   37.7050   32.5280 C   0  0  0  0  0  0  0  0  0  0  0  0
   38.5180   38.0820   32.7420 N   0  0  0  0  0  0  0  0  0  0  0  0
   40.3050   38.8600   31.2030 C   0  0  0  0  0  0  0  0  0  0  0  0
   39.4020   37.7340   31.6150 C   0  0  0  0  0  0  0  0  0  0  0  0
   41.3650   38.6800   34.5790 N   0  0  0  0  0  0  0  0  0  0  0  0
   34.5490   36.6440   33.4150 C   0  0  0  0  0  0  0  0  0  0  0  0
   40.6060   38.8110   33.6010 C   0  0  0  0  0  0  0  0  0  0  0  0
   36.9280   36.4500   33.8930 C   0  0  0  0  0  0  0  0  0  0  0  0
   41.1790   39.2280   32.3220 N   0  0  0  0  0  0  0  0  0  0  0  0
   37.1850   37.4770   33.0210 C   0  0  0  0  0  0  0  0  0  0  0  0
   35.6150   36.0130   34.0330 C   0  0  0  0  0  0  0  0  0  0  0  0
  1  4  1  0
  2  4  2  0
  2 13  1  0
  4  9  1  0
  5 13  1  0
  5  3  1  0
  6  7  1  0
  6 12  1  0
  7  5  1  0
  9 14  2  0
 10  3  1  0
 10  8  2  0
 11 14  1  0
 12 10  1  0
 13 11  2  0
M  END
$$$$

     RDKit          3D

 10 10  0  0  0  0  0  0  0  0999 V2000
   39.2520   42.3680   29.8890 N   0  0  0  0  0  0  0  0  0  0  0  0
   39.2900   40.2240   29.0830 C   0  0  0  0  0  0  0  0  0  0  0  0
   39.4330   43.4760   29.3550 C   0  0  0  0  0  0  0  0  0  0  0  0
   40.1160   41.0680   26.4390 C   0  0  0  0  0  0  0  0  0  0  0  0
   39.5990   41.4250   29.0080 C   0  0  0  0  0  0  0  0  0  0  0  0
   40.4680   41.7080   25.4070 O   0  0  0  0  0  0  0  0  0  0  0  0
   39.8760   41.9890   27.6130 C   0  0  0  0  0  0  0  0  0  0  0  0
   39.7610   43.3920   27.8030 N   0  0  0  0  0  0  0  0  0  0  0  0
   39.4070   39.2520   29.6930 O   0  0  0  0  0  0  0  0  0  0  0  0
   40.2720   39.8200   26.4790 O   0  0  0  0  0  0  0  0  0  0  0  0
  2  9  2  0
  3  1  1  0
  4 10  1  0
  4  7  1  0
  5  2  1  0
  5  1  2  0
  6  4  2  0
  7  8  2  0
  7  5  1  0
  8  3  1  0
M  END
$$$$

     RDKit          3D

 14 14  0  0  0  0  0  0  0  0999 V2000
   36.8030   34.0860   32.1910 C   0  0  0  0  0  0  0  0  0  0  0  0
   36.1520   38.9930   31.6240 C   0  0  0  0  0  0  0  0  0  0  0  0
   38.4250   37.9550   30.5300 C   0  0  0  0  0  0  0  0  0  0  0  0
   38.9260   41.1620   31.0770 C   0  0  0  0  0  0  0  0  0  0  0  0
   35.6470   37.5780   31.8970 C   0  0  0  0  0  0  0  0  0  0  0  0
   37.8510   35.7120   29.9880 O   0  0  0  0  0  0  0  0  0  0  0  0
   38.1040   40.1010   31.6330 C   0  0  0  0  0  0  0  0  0  0  0  0
   39.5000   42.0190   32.1040 O   0  0  0  0  0  0  0  0  0  0  0  0
   37.7460   36.6360   30.7870 C   0  0  0  0  0  0  0  0  0  0  0  0
   36.3240   35.3950   32.4000 O   0  0  0  0  0  0  0  0  0  0  0  0
   36.8580   36.6800   32.0140 C   0  0  0  0  0  0  0  0  0  0  0  0
   37.3730   39.0470   30.7260 C   0  0  0  0  0  0  0  0  0  0  0  0
   38.9020   43.4160   29.8790 C   0  0  0  0  0  0  0  0  0  0  0  0
   38.0710   42.1560   30.2140 C   0  0  0  0  0  0  0  0  0  0  0  0
  1 10  1  0
  2  5  1  0
  3 12  1  0
  3  9  1  0
  4  7  1  0
  4  8  1  0
  5 11  1  0
  6  9  2  0
  9 11  1  0
 11 10  1  0
 12  2  1  0
 12  7  1  0
 13 14  1  0
 14  4  1  0
M  END
$$$$

     RDKit          3D

 14 15  0  0  0  0  0  0  0  0999 V2000
   36.1620   35.2880   35.0040 C   0  0  0  0  0  0  0  0  0  0  0  0
   36.9350   36.4880   31.8380 O   0  0  0  0  0  0  0  0  0  0  0  0
   37.6190   37.6400   32.1960 C   0  0  0  0  0  0  0  0  0  0  0  0
   39.6000   39.4960   32.4610 C   0  0  0  0  0  0  0  0  0  0  0  0
   37.2020   35.5500   32.7350 C   0  0  0  0  0  0  0  0  0  0  0  0
   37.4310   38.7890   31.4220 C   0  0  0  0  0  0  0  0  0  0  0  0
   39.5590   38.4190   33.3110 N   0  0  0  0  0  0  0  0  0  0  0  0
   38.5210   39.8080   31.5680 N   0  0  0  0  0  0  0  0  0  0  0  0
   35.8090   35.9010   36.0610 O   0  0  0  0  0  0  0  0  0  0  0  0
   38.5240   37.5760   33.3540 C   0  0  0  0  0  0  0  0  0  0  0  0
   37.2210   35.8740   34.1750 C   0  0  0  0  0  0  0  0  0  0  0  0
   35.2470   34.5500   34.5020 O   0  0  0  0  0  0  0  0  0  0  0  0
   38.2240   36.8150   34.4020 O   0  0  0  0  0  0  0  0  0  0  0  0
   40.6200   40.5000   32.5810 N   0  0  0  0  0  0  0  0  0  0  0  0
  1  9  1  0
  2  3  1  0
  2  5  1  0
  3  6  1  0
  3 10  1  0
  4 14  1  0
  4  7  1  0
  5 11  1  0
  6  8  1  0
  7 10  2  0
  8  4  2  0
 10 13  1  0
 11 13  1  0
 11  1  1  0
 12  1  2  0
M  END
$$$$

     RDKit          3D

  7  7  0  0  0  0  0  0  0  0999 V2000
   36.2880   39.6170   29.5620 O   0  0  0  0  0  0  0  0  0  0  0  0
   40.7120   39.1900   28.2080 C   0  0  0  0  0  0  0  0  0  0  0  0
   38.2170   41.4680   30.0660 C   0  0  0  0  0  0  0  0  0  0  0  0
   38.6630   40.2560   29.4770 C   0  0  0  0  0  0  0  0  0  0  0  0
   37.4040   40.2490   30.3090 C   0  0  0  0  0  0  0  0  0  0  0  0
   39.4940   39.3580   29.0230 C   0  0  0  0  0  0  0  0  0  0  0  0
   36.9460   40.7890   31.6600 C   0  0  0  0  0  0  0  0  0  0  0  0
  1  5  1  0
  2  6  1  0
  3  5  1  0
  4  6  1  0
  4  3  1  0
  4  5  1  0
  5  7  1  0
M  END
$$$$

     RDKit          3D

  7  6  0  0  0  0  0  0  0  0999 V2000
   40.1320   41.4730   27.1110 C   0  0  0  0  0  0  0  0  0  0  0  0
   38.7190   42.1140   27.2470 C   0  0  0  0  0  0  0  0  0  0  0  0
   37.7700   41.8630   30.2500 O   0  0  0  0  0  0  0  0  0  0  0  0
   39.0300   38.2180   30.2610 C   0  0  0  0  0  0  0  0  0  0  0  0
   37.7770   41.3940   28.0770 C   0  0  0  0  0  0  0  0  0  0  0  0
   37.9760   40.9870   29.4020 C   0  0  0  0  0  0  0  0  0  0  0  0
   38.8240   39.6870   29.6800 C   0  0  0  0  0  0  0  0  0  0  0  0
  1  2  1  0
  2  5  1  0
  5  6  1  0
  6  7  1  0
  6  3  2  0
  7  4  1  0
M  END
$$$$
