
     RDKit          3D

  7  6  0  0  0  0  0  0  0  0999 V2000
   39.8330   38.3580   43.8430 C   0  0  0  0  0  0  0  0  0  0  0  0
   39.6770   39.2600   41.5830 O   0  0  0  0  0  0  0  0  0  0  0  0
   38.7460   37.0980   43.0440 C   0  0  0  0  0  0  0  0  0  0  0  0
   39.4150   37.7100   45.1530 O   0  0  0  0  0  0  0  0  0  0  0  0
   40.0950   38.8260   42.5210 C   0  0  0  0  0  0  0  0  0  0  0  0
   38.1390   38.1600   43.2220 C   0  0  0  0  0  0  0  0  0  0  0  0
   37.6070   38.8740   44.2020 O   0  0  0  0  0  0  0  0  0  0  0  0
  1  4  1  0
  2  5  2  0
  5  1  1  0
  6  3  1  0
  6  1  1  0
  6  7  1  0
M  END
$$$$

     RDKit          3D

 20 23  0  0  0  0  0  0  0  0999 V2000
   34.6600   39.6090   45.4840 C   0  0  0  0  0  0  0  0  0  0  0  0
   36.7140   40.1570   46.6890 C   0  0  0  0  0  0  0  0  0  0  0  0
   39.3690   37.8100   40.3780 C   0  0  0  0  0  0  0  0  0  0  0  0
   37.4370   39.5710   45.6590 C   0  0  0  0  0  0  0  0  0  0  0  0
   41.6430   37.8110   40.6720 O   0  0  0  0  0  0  0  0  0  0  0  0
   39.0610   37.5640   41.7370 C   0  0  0  0  0  0  0  0  0  0  0  0
   35.3290   40.1650   46.5870 C   0  0  0  0  0  0  0  0  0  0  0  0
   33.4570   39.4510   45.4080 O   0  0  0  0  0  0  0  0  0  0  0  0
   35.4830   39.2140   44.2920 C   0  0  0  0  0  0  0  0  0  0  0  0
   37.7800   39.0610   41.9990 C   0  0  0  0  0  0  0  0  0  0  0  0
   40.1090   36.8930   37.6770 C   0  0  0  0  0  0  0  0  0  0  0  0
   40.7310   37.5210   39.9440 C   0  0  0  0  0  0  0  0  0  0  0  0
   38.8300   37.1950   37.9990 C   0  0  0  0  0  0  0  0  0  0  0  0
   36.8360   39.3130   44.3910 C   0  0  0  0  0  0  0  0  0  0  0  0
   41.0510   36.9610   38.6870 C   0  0  0  0  0  0  0  0  0  0  0  0
   39.1770   39.0800   41.3770 C   0  0  0  0  0  0  0  0  0  0  0  0
   38.7120   39.1390   45.5580 N   0  0  0  0  0  0  0  0  0  0  0  0
   37.8740   39.2130   43.5570 N   0  0  0  0  0  0  0  0  0  0  0  0
   38.8790   38.6340   44.2720 C   0  0  0  0  0  0  0  0  0  0  0  0
   38.4460   37.7500   39.2260 C   0  0  0  0  0  0  0  0  0  0  0  0
  1  7  1  0
  3 20  1  0
  3 16  1  0
  3  6  1  0
  4  2  1  0
  7  2  2  0
  8  1  2  0
  9 14  2  0
  9  1  1  0
 10 18  1  0
 11 13  2  0
 11 15  1  0
 12  3  1  0
 12  5  2  0
 13 20  1  0
 14  4  1  0
 15 12  1  0
 16  6  1  0
 16 10  1  0
 17  4  1  0
 18 19  1  0
 18 14  1  0
 19 17  1  0
M  END
$$$$

     RDKit          3D

 10  9  0  0  0  0  0  0  0  0999 V2000
   38.4640   37.9930   44.1940 P   0  0  0  0  0  0  0  0  0  0  0  0
   39.4010   37.9800   45.5890 O   0  0  0  0  0  0  0  0  0  0  0  0
   41.0780   40.4400   42.2320 C   0  0  0  0  0  0  0  0  0  0  0  0
   38.2490   38.0580   42.2830 C   0  0  0  0  0  0  0  0  0  0  0  0
   37.5790   39.2600   44.3760 O   0  0  0  0  0  0  0  0  0  0  0  0
   38.6250   36.2790   44.0300 O   0  0  0  0  0  0  0  0  0  0  0  0
   41.4000   41.1280   41.3170 N   0  0  0  0  0  0  0  0  0  0  0  0
   41.5250   40.7060   43.4210 O   0  0  0  0  0  0  0  0  0  0  0  0
   39.5760   38.5570   41.9120 C   0  0  0  0  0  0  0  0  0  0  0  0
   40.2800   39.5100   42.0670 N   0  0  0  0  0  0  0  0  0  0  0  0
  1  5  1  0
  1  2  1  0
  3  8  2  0
  4  1  1  0
  6  1  2  0
  7  3  1  0
  9 10  1  0
  9  4  1  0
 10  3  1  0
M  END
$$$$

     RDKit          3D

  7  6  0  0  0  0  0  0  0  0999 V2000
   37.8050   38.7680   43.6890 C   0  0  0  0  0  0  0  0  0  0  0  0
   36.3840   41.9340   43.5410 O   0  0  0  0  0  0  0  0  0  0  0  0
   37.6980   40.0310   43.5740 C   0  0  0  0  0  0  0  0  0  0  0  0
   39.0370   38.0300   45.2470 O   0  0  0  0  0  0  0  0  0  0  0  0
   38.6120   37.0580   43.2470 C   0  0  0  0  0  0  0  0  0  0  0  0
   37.3390   40.7090   42.6560 C   0  0  0  0  0  0  0  0  0  0  0  0
   38.8520   38.0970   44.2770 C   0  0  0  0  0  0  0  0  0  0  0  0
  1  7  1  0
  3  1  1  0
  6  2  1  0
  6  3  1  0
  7  5  1  0
  7  4  1  0
M  END
$$$$

     RDKit          3D

 13 14  0  0  0  0  0  0  0  0999 V2000
   38.3750   38.2130   44.4710 C   0  0  0  0  0  0  0  0  0  0  0  0
   37.1710   40.7400   46.7300 C   0  0  0  0  0  0  0  0  0  0  0  0
   37.7340   39.3090   46.5200 C   0  0  0  0  0  0  0  0  0  0  0  0
   39.1520   37.4270   45.1350 O   0  0  0  0  0  0  0  0  0  0  0  0
   39.1480   39.1200   39.9460 N   0  0  0  0  0  0  0  0  0  0  0  0
   38.2730   38.4650   40.6800 N   0  0  0  0  0  0  0  0  0  0  0  0
   37.3190   40.4240   44.4760 C   0  0  0  0  0  0  0  0  0  0  0  0
   40.2040   39.3340   40.6440 C   0  0  0  0  0  0  0  0  0  0  0  0
   38.1850   37.5400   43.0420 C   0  0  0  0  0  0  0  0  0  0  0  0
   36.9060   41.3320   45.5980 C   0  0  0  0  0  0  0  0  0  0  0  0
   38.8090   38.3890   41.9570 C   0  0  0  0  0  0  0  0  0  0  0  0
   39.9180   38.9590   41.9560 N   0  0  0  0  0  0  0  0  0  0  0  0
   37.5180   39.0790   45.0640 N   0  0  0  0  0  0  0  0  0  0  0  0
  1 13  1  0
  1  4  2  0
  3  2  1  0
  5  8  2  0
  5  6  1  0
  6 11  2  0
  7 13  1  0
  7 10  1  0
  8 12  1  0
  9  1  1  0
 10  2  1  0
 11  9  1  0
 12 11  1  0
 13  3  1  0
M  END
$$$$

     RDKit          3D

 11 12  0  0  0  0  0  0  0  0999 V2000
   38.9160   37.3350   43.4110 C   0  0  0  0  0  0  0  0  0  0  0  0
   40.1480   38.2240   41.3460 C   0  0  0  0  0  0  0  0  0  0  0  0
   37.7450   39.5700   43.7610 C   0  0  0  0  0  0  0  0  0  0  0  0
   37.8440   38.8630   44.8680 C   0  0  0  0  0  0  0  0  0  0  0  0
   36.7880   40.5220   43.9770 N   0  0  0  0  0  0  0  0  0  0  0  0
   38.8960   37.7750   44.8350 C   0  0  0  0  0  0  0  0  0  0  0  0
   36.3150   40.2790   45.3260 N   0  0  0  0  0  0  0  0  0  0  0  0
   40.6380   36.8350   41.3020 O   0  0  0  0  0  0  0  0  0  0  0  0
   38.6710   39.6300   42.6630 C   0  0  0  0  0  0  0  0  0  0  0  0
   39.4870   38.3630   42.6110 N   0  0  0  0  0  0  0  0  0  0  0  0
   37.1870   39.4070   45.8680 N   0  0  0  0  0  0  0  0  0  0  0  0
  1  6  1  0
  2 10  1  0
  3  9  1  0
  3  5  1  0
  3  4  1  0
  4  6  1  0
  4 11  1  0
  5  7  1  0
  7 11  1  0
  8  2  1  0
 10  9  1  0
 10  1  1  0
M  END
$$$$

     RDKit          3D

 23 23  0  0  0  0  0  0  0  0999 V2000
   39.6900   39.0810   41.2130 C   0  0  0  0  0  0  0  0  0  0  0  0
   40.8100   40.3500   41.3440 C   0  0  0  0  0  0  0  0  0  0  0  0
   36.1600   41.5610   43.6730 C   0  0  0  0  0  0  0  0  0  0  0  0
   39.3510   38.1520   43.1980 N   0  0  0  0  0  0  0  0  0  0  0  0
   38.7240   36.7100   42.9320 C   0  0  0  0  0  0  0  0  0  0  0  0
   39.1460   39.1650   42.5290 C   0  0  0  0  0  0  0  0  0  0  0  0
   35.5190   40.6580   44.7190 C   0  0  0  0  0  0  0  0  0  0  0  0
   37.7130   39.8330   43.0210 C   0  0  0  0  0  0  0  0  0  0  0  0
   37.0290   38.9960   43.9200 C   0  0  0  0  0  0  0  0  0  0  0  0
   38.6310   39.1600   40.1900 O   0  0  0  0  0  0  0  0  0  0  0  0
   31.4540   39.2020   48.4820 C   0  0  0  0  0  0  0  0  0  0  0  0
   33.1640   40.3310   46.9440 C   0  0  0  0  0  0  0  0  0  0  0  0
   34.3710   41.1320   46.8010 C   0  0  0  0  0  0  0  0  0  0  0  0
   37.1890   41.1240   42.9180 C   0  0  0  0  0  0  0  0  0  0  0  0
   38.7170   36.2400   44.2360 O   0  0  0  0  0  0  0  0  0  0  0  0
   41.7330   39.8040   40.8770 O   0  0  0  0  0  0  0  0  0  0  0  0
   35.9170   39.4140   44.8030 C   0  0  0  0  0  0  0  0  0  0  0  0
   40.3280   37.7910   40.8520 C   0  0  0  0  0  0  0  0  0  0  0  0
   32.6710   40.0300   48.1550 C   0  0  0  0  0  0  0  0  0  0  0  0
   34.6610   41.2400   45.5200 N   0  0  0  0  0  0  0  0  0  0  0  0
   30.3190   39.7310   47.4680 C   0  0  0  0  0  0  0  0  0  0  0  0
   34.9540   41.5850   47.8310 O   0  0  0  0  0  0  0  0  0  0  0  0
   40.4550   41.6000   41.1970 O   0  0  0  0  0  0  0  0  0  0  0  0
  1 18  1  0
  1  2  1  0
  1  6  1  0
  3  7  1  0
  5  4  1  0
  5 15  1  0
  6  8  1  0
  6  4  1  0
  7 17  2  0
  7 20  1  0
  8  9  2  0
  9 17  1  0
 10  1  1  0
 12 19  2  3
 13 12  1  0
 13 22  2  0
 14  8  1  0
 14  3  2  0
 16  2  2  0
 19 11  1  0
 20 13  1  0
 21 11  1  0
 23  2  1  0
M  END
$$$$

     RDKit          3D

 11 12  0  0  0  0  0  0  0  0999 V2000
   38.2200   39.9240   44.3980 C   0  0  0  0  0  0  0  0  0  0  0  0
   37.3020   38.9360   44.6260 C   0  0  0  0  0  0  0  0  0  0  0  0
   40.4680   37.7530   41.5010 O   0  0  0  0  0  0  0  0  0  0  0  0
   37.5280   41.3850   45.2450 O   0  0  0  0  0  0  0  0  0  0  0  0
   37.7520   41.7960   42.7870 O   0  0  0  0  0  0  0  0  0  0  0  0
   38.8400   39.4950   42.1250 O   0  0  0  0  0  0  0  0  0  0  0  0
   38.4350   38.2720   42.5670 C   0  0  0  0  0  0  0  0  0  0  0  0
   38.6520   40.7110   43.2200 C   0  0  0  0  0  0  0  0  0  0  0  0
   38.4930   38.3400   44.0080 C   0  0  0  0  0  0  0  0  0  0  0  0
   39.2900   37.1070   41.9910 C   0  0  0  0  0  0  0  0  0  0  0  0
   38.6010   36.8870   44.6080 O   0  0  0  0  0  0  0  0  0  0  0  0
  1  2  1  0
  1  4  1  0
  3 10  1  0
  6  7  1  0
  6  8  1  0
  7 10  1  0
  7  9  1  0
  8  5  1  0
  8  1  1  0
  9  1  1  0
  9 11  1  0
  9  2  1  0
M  END
$$$$

     RDKit          3D

 11 12  0  0  0  0  0  0  0  0999 V2000
   36.2440   40.1830   44.4240 C   0  0  0  0  0  0  0  0  0  0  0  0
   36.2350   40.3610   45.8800 C   0  0  0  0  0  0  0  0  0  0  0  0
   38.0960   38.7680   45.8100 C   0  0  0  0  0  0  0  0  0  0  0  0
   38.3340   37.7980   41.1540 O   0  0  0  0  0  0  0  0  0  0  0  0
   37.5630   40.0520   46.4840 C   0  0  0  0  0  0  0  0  0  0  0  0
   38.3130   37.8600   43.3800 C   0  0  0  0  0  0  0  0  0  0  0  0
   38.0080   38.3630   42.1890 C   0  0  0  0  0  0  0  0  0  0  0  0
   37.5440   40.0610   43.7440 C   0  0  0  0  0  0  0  0  0  0  0  0
   38.9060   36.3440   43.6220 Cl  0  0  0  0  0  0  0  0  0  0  0  0
   37.7860   39.8670   42.2590 C   0  0  0  0  0  0  0  0  0  0  0  0
   37.8720   38.7860   44.4010 C   0  0  0  0  0  0  0  0  0  0  0  0
  1  2  1  0
  2  5  1  0
  3  5  1  0
  4  7  2  0
  6  9  1  0
  6 11  1  0
  7 10  1  0
  7  6  1  0
  8 10  1  0
  8 11  1  0
  8  1  1  0
 11  3  1  0
M  END
$$$$

     RDKit          3D

 12 14  0  0  0  0  0  0  0  0999 V2000
   38.6990   37.2350   42.1550 C   0  0  0  0  0  0  0  0  0  0  0  0
   38.8630   41.1700   42.8300 O   0  0  0  0  0  0  0  0  0  0  0  0
   38.5830   38.7750   46.5270 O   0  0  0  0  0  0  0  0  0  0  0  0
   36.7030   38.5770   43.5930 O   0  0  0  0  0  0  0  0  0  0  0  0
   39.3270   40.0030   42.9240 C   0  0  0  0  0  0  0  0  0  0  0  0
   39.1780   38.7510   41.7280 S   0  0  0  0  0  0  0  0  0  0  0  0
   39.4580   39.3050   44.2910 C   0  0  0  0  0  0  0  0  0  0  0  0
   38.2520   39.1680   45.1800 C   0  0  0  0  0  0  0  0  0  0  0  0
   37.2240   41.0790   45.5360 C   0  0  0  0  0  0  0  0  0  0  0  0
   37.8850   37.3790   43.4980 C   0  0  0  0  0  0  0  0  0  0  0  0
   38.9820   37.9900   44.4500 C   0  0  0  0  0  0  0  0  0  0  0  0
   37.1600   39.6460   44.8360 C   0  0  0  0  0  0  0  0  0  0  0  0
  2  5  2  0
  4 12  1  0
  6  1  1  0
  6  5  1  0
  7  5  1  0
  7 11  1  0
  7  8  1  0
  8  3  1  0
 10  1  1  0
 10  4  1  0
 10 11  1  0
 11  8  1  0
 12  8  1  0
 12  9  1  0
M  END
$$$$

     RDKit          3D

 14 15  0  0  0  0  0  0  0  0999 V2000
   37.0230   39.9460   46.8830 C   0  0  0  0  0  0  0  0  0  0  0  0
   40.1390   37.4480   41.1070 C   0  0  0  0  0  0  0  0  0  0  0  0
   38.6730   36.5590   43.9900 O   0  0  0  0  0  0  0  0  0  0  0  0
   39.7930   38.6850   44.0890 O   0  0  0  0  0  0  0  0  0  0  0  0
   40.3250   37.5930   39.7480 C   0  0  0  0  0  0  0  0  0  0  0  0
   39.2040   37.9100   39.2470 N   0  0  0  0  0  0  0  0  0  0  0  0
   38.1520   39.4620   45.9500 C   0  0  0  0  0  0  0  0  0  0  0  0
   34.9130   40.9910   47.3610 N   0  0  0  0  0  0  0  0  0  0  0  0
   38.3240   37.9300   40.1920 C   0  0  0  0  0  0  0  0  0  0  0  0
   35.8060   40.5230   46.2260 C   0  0  0  0  0  0  0  0  0  0  0  0
   38.5780   38.0030   43.9860 S   0  0  0  0  0  0  0  0  0  0  0  0
   38.1570   37.4380   42.7880 C   0  0  0  0  0  0  0  0  0  0  0  0
   38.8770   37.6540   41.3490 C   0  0  0  0  0  0  0  0  0  0  0  0
   37.6280   38.7820   44.8830 O   0  0  0  0  0  0  0  0  0  0  0  0
  2 13  1  0
  5  2  2  0
  6  5  1  0
  6  9  2  0
  7  1  1  0
 10  1  1  0
 10  8  1  0
 11  3  1  0
 11  4  1  0
 11 14  1  0
 12 11  1  0
 12  3  1  0
 13  9  1  0
 13 12  1  0
 14  7  1  0
M  END
$$$$

     RDKit          3D

 20 21  0  0  0  0  0  0  0  0999 V2000
   38.6760   37.7950   37.5350 C   0  0  0  0  0  0  0  0  0  0  0  0
   40.2720   36.3910   36.1370 N   0  0  0  0  0  0  0  0  0  0  0  0
   39.1220   38.2340   43.3570 N   0  0  0  0  0  0  0  0  0  0  0  0
   39.3940   36.5680   37.3160 C   0  0  0  0  0  0  0  0  0  0  0  0
   35.3030   40.2400   45.3040 C   0  0  0  0  0  0  0  0  0  0  0  0
   40.6530   36.6140   40.6210 O   0  0  0  0  0  0  0  0  0  0  0  0
   35.5370   41.4910   47.1680 N   0  0  0  0  0  0  0  0  0  0  0  0
   38.4850   38.2410   44.6290 C   0  0  0  0  0  0  0  0  0  0  0  0
   37.5490   39.3060   45.1570 C   0  0  0  0  0  0  0  0  0  0  0  0
   38.1190   38.0750   38.6400 C   0  0  0  0  0  0  0  0  0  0  0  0
   40.0080   36.9590   39.6520 C   0  0  0  0  0  0  0  0  0  0  0  0
   38.2940   38.2420   41.1390 C   0  0  0  0  0  0  0  0  0  0  0  0
   38.7470   37.7440   39.8330 C   0  0  0  0  0  0  0  0  0  0  0  0
   37.8660   42.7200   46.9630 N   0  0  0  0  0  0  0  0  0  0  0  0
   36.3200   39.5740   44.4230 C   0  0  0  0  0  0  0  0  0  0  0  0
   37.5180   41.7240   46.0090 C   0  0  0  0  0  0  0  0  0  0  0  0
   40.3820   36.4640   38.4520 C   0  0  0  0  0  0  0  0  0  0  0  0
   38.2960   37.3400   42.5450 C   0  0  0  0  0  0  0  0  0  0  0  0
   38.2220   40.5110   45.4460 N   0  0  0  0  0  0  0  0  0  0  0  0
   36.0950   41.5180   45.8300 C   0  0  0  0  0  0  0  0  0  0  0  0
  1 10  1  0
  3  8  1  0
  4  2  1  0
  4  1  1  0
  4 17  1  0
  5 20  1  0
  9  8  1  0
  9 19  1  0
 10 13  2  0
 11 13  1  0
 11  6  2  0
 12 18  1  0
 13 12  1  0
 15  9  1  0
 15  5  1  0
 16 14  1  0
 17 11  1  0
 18  3  1  0
 19 16  1  0
 20 16  1  0
 20  7  1  0
M  END
$$$$

     RDKit          3D

 14 15  0  0  0  0  0  0  0  0999 V2000
   38.6220   36.8660   44.8290 O   0  0  0  0  0  0  0  0  0  0  0  0
   38.4770   40.0730   43.0870 C   0  0  0  0  0  0  0  0  0  0  0  0
   38.3730   41.3390   43.5910 C   0  0  0  0  0  0  0  0  0  0  0  0
   38.7670   39.6100   41.7740 C   0  0  0  0  0  0  0  0  0  0  0  0
   38.8300   37.3750   42.5950 C   0  0  0  0  0  0  0  0  0  0  0  0
   38.2420   39.0970   44.0860 C   0  0  0  0  0  0  0  0  0  0  0  0
   40.4300   38.3380   38.1640 O   0  0  0  0  0  0  0  0  0  0  0  0
   41.1430   39.2480   39.9560 C   0  0  0  0  0  0  0  0  0  0  0  0
   38.4040   37.7670   43.8190 C   0  0  0  0  0  0  0  0  0  0  0  0
   39.6380   37.8440   40.2300 N   0  0  0  0  0  0  0  0  0  0  0  0
   37.8960   39.8850   45.0980 N   0  0  0  0  0  0  0  0  0  0  0  0
   39.8730   39.1210   39.2860 N   0  0  0  0  0  0  0  0  0  0  0  0
   39.1100   38.3440   41.6020 C   0  0  0  0  0  0  0  0  0  0  0  0
   37.9500   41.1870   44.9180 C   0  0  0  0  0  0  0  0  0  0  0  0
  2  3  2  0
  2  6  1  0
  3 14  1  0
  4  2  1  0
  5  9  2  0
  6 11  2  0
  7 12  1  0
  9  6  1  0
  9  1  1  0
 10 13  1  0
 12  8  1  0
 12 10  1  0
 13  4  2  0
 13  5  1  0
 14 11  1  0
M  END
$$$$

     RDKit          3D

 10 11  0  0  0  0  0  0  0  0999 V2000
   38.0750   40.8820   44.7950 C   0  0  0  0  0  0  0  0  0  0  0  0
   38.6710   38.8130   43.5800 C   0  0  0  0  0  0  0  0  0  0  0  0
   39.0850   36.5360   43.6440 O   0  0  0  0  0  0  0  0  0  0  0  0
   37.0970   37.8400   43.4900 C   0  0  0  0  0  0  0  0  0  0  0  0
   36.8910   39.0230   43.7940 C   0  0  0  0  0  0  0  0  0  0  0  0
   38.5060   39.5060   42.6810 C   0  0  0  0  0  0  0  0  0  0  0  0
   36.7340   39.4030   43.7670 C   0  0  0  0  0  0  0  0  0  0  0  0
   37.0840   40.6440   44.6670 C   0  0  0  0  0  0  0  0  0  0  0  0
   39.3730   39.7180   43.5470 C   0  0  0  0  0  0  0  0  0  0  0  0
   38.2840   37.3620   43.4840 C   0  0  0  0  0  0  0  0  0  0  0  0
  2  5  1  0
  4  5  1  0
  5  7  1  0
  6  9  1  0
  6  2  1  0
  7  8  1  0
  8  1  2  0
  9  2  1  0
 10  4  1  0
 10  2  1  0
 10  3  2  0
M  END
$$$$

     RDKit          3D

  8  7  0  0  0  0  0  0  0  0999 V2000
   38.3100   38.9420   41.2070 S   0  0  0  0  0  0  0  0  0  0  0  0
   37.7650   38.9850   43.7700 C   0  0  0  0  0  0  0  0  0  0  0  0
   37.1420   39.4760   45.0900 C   0  0  0  0  0  0  0  0  0  0  0  0
   37.5360   39.5440   42.5290 C   0  0  0  0  0  0  0  0  0  0  0  0
   38.7590   37.8840   44.0230 C   0  0  0  0  0  0  0  0  0  0  0  0
   38.2110   39.2040   46.0800 O   0  0  0  0  0  0  0  0  0  0  0  0
   38.6260   36.6630   43.8900 O   0  0  0  0  0  0  0  0  0  0  0  0
   39.9820   38.3870   44.0590 O   0  0  0  0  0  0  0  0  0  0  0  0
  1  4  1  0
  2  5  1  0
  2  3  1  0
  3  6  1  0
  4  2  2  3
  5  8  1  0
  7  5  2  0
M  END
$$$$

     RDKit          3D

 11 12  0  0  0  0  0  0  0  0999 V2000
   37.6090   39.6920   43.3860 C   0  0  0  0  0  0  0  0  0  0  0  0
   38.4410   37.3550   43.5210 C   0  0  0  0  0  0  0  0  0  0  0  0
   38.8620   36.3730   44.1070 O   0  0  0  0  0  0  0  0  0  0  0  0
   37.6830   39.9810   46.1400 C   0  0  0  0  0  0  0  0  0  0  0  0
   38.2830   37.2370   42.0020 C   0  0  0  0  0  0  0  0  0  0  0  0
   38.1190   38.6710   44.2170 C   0  0  0  0  0  0  0  0  0  0  0  0
   37.0730   40.9200   45.3570 C   0  0  0  0  0  0  0  0  0  0  0  0
   38.2810   38.8780   45.5900 C   0  0  0  0  0  0  0  0  0  0  0  0
   37.0060   37.9180   41.6580 C   0  0  0  0  0  0  0  0  0  0  0  0
   37.3640   39.3870   41.9510 C   0  0  0  0  0  0  0  0  0  0  0  0
   37.1610   40.8760   44.0150 C   0  0  0  0  0  0  0  0  0  0  0  0
  1 11  2  0
  1  6  1  0
  2  3  2  0
  2  6  1  0
  5  2  1  0
  6  8  2  0
  7  4  2  0
  8  4  1  0
  9 10  1  0
  9  5  1  0
 10  1  1  0
 11  7  1  0
M  END
$$$$

     RDKit          3D

 27 29  0  0  0  0  0  0  0  0999 V2000
   36.9610   39.8780   45.7360 N   0  0  0  0  0  0  0  0  0  0  0  0
   41.4110   38.0670   39.7350 N   0  0  0  0  0  0  0  0  0  0  0  0
   34.9830   40.8820   47.1560 C   0  0  0  0  0  0  0  0  0  0  0  0
   38.7010   38.5150   43.3760 C   0  0  0  0  0  0  0  0  0  0  0  0
   42.5520   36.1590   36.8540 O   0  0  0  0  0  0  0  0  0  0  0  0
   40.1720   38.3810   40.6050 C   0  0  0  0  0  0  0  0  0  0  0  0
   39.1620   37.9120   45.7880 O   0  0  0  0  0  0  0  0  0  0  0  0
   37.3210   39.1960   43.1900 C   0  0  0  0  0  0  0  0  0  0  0  0
   39.3210   37.0800   41.2630 C   0  0  0  0  0  0  0  0  0  0  0  0
   32.8700   41.0840   49.6270 C   0  0  0  0  0  0  0  0  0  0  0  0
   39.8320   39.3850   42.8930 C   0  0  0  0  0  0  0  0  0  0  0  0
   35.6800   40.4010   45.7410 C   0  0  0  0  0  0  0  0  0  0  0  0
   36.8900   39.6460   44.4010 C   0  0  0  0  0  0  0  0  0  0  0  0
   41.6710   36.9090   39.1200 C   0  0  0  0  0  0  0  0  0  0  0  0
   42.4470   38.4660   37.1210 O   0  0  0  0  0  0  0  0  0  0  0  0
   42.1780   36.8980   37.6660 C   0  0  0  0  0  0  0  0  0  0  0  0
   31.3270   41.5120   47.6870 N   0  0  0  0  0  0  0  0  0  0  0  0
   32.8230   41.6360   48.2020 C   0  0  0  0  0  0  0  0  0  0  0  0
   33.6290   40.8070   47.2470 C   0  0  0  0  0  0  0  0  0  0  0  0
   35.2550   40.4970   44.3730 S   0  0  0  0  0  0  0  0  0  0  0  0
   32.9600   40.0030   46.4100 O   0  0  0  0  0  0  0  0  0  0  0  0
   39.7890   35.9410   37.7280 O   0  0  0  0  0  0  0  0  0  0  0  0
   40.9050   35.6590   38.5890 C   0  0  0  0  0  0  0  0  0  0  0  0
   40.6860   39.2650   41.4760 C   0  0  0  0  0  0  0  0  0  0  0  0
   38.6500   37.2200   42.4770 C   0  0  0  0  0  0  0  0  0  0  0  0
   38.9100   37.7140   44.5530 C   0  0  0  0  0  0  0  0  0  0  0  0
   39.0240   36.6120   43.6900 N   0  0  0  0  0  0  0  0  0  0  0  0
  1 12  1  0
  3 19  1  0
  4  8  1  0
  4 26  1  0
  5 16  2  0
  6  2  1  0
  6  9  1  0
  6 24  1  0
 11  4  1  0
 12  3  1  0
 13  8  1  0
 13  1  1  0
 14 23  1  0
 14  2  1  0
 15 16  1  0
 16 14  1  0
 17 18  1  0
 18 10  1  0
 19 21  1  0
 19 18  1  0
 20 13  1  0
 20 12  1  0
 22 23  1  0
 24 11  1  0
 25  9  1  0
 25  4  1  0
 25 27  1  0
 26  7  2  0
 27 26  1  0
M  END
$$$$

     RDKit          3D

 13 13  0  0  0  0  0  0  0  0999 V2000
   38.7700   37.0390   44.3420 O   0  0  0  0  0  0  0  0  0  0  0  0
   37.3860   39.1900   42.6880 C   0  0  0  0  0  0  0  0  0  0  0  0
   38.3350   37.2450   43.3600 C   0  0  0  0  0  0  0  0  0  0  0  0
   35.6940   40.4820   45.5760 C   0  0  0  0  0  0  0  0  0  0  0  0
   37.5470   42.1030   45.0510 C   0  0  0  0  0  0  0  0  0  0  0  0
   37.3440   40.0460   43.8160 N   0  0  0  0  0  0  0  0  0  0  0  0
   36.3740   39.4830   44.7210 C   0  0  0  0  0  0  0  0  0  0  0  0
   37.8320   38.3690   42.3840 C   0  0  0  0  0  0  0  0  0  0  0  0
   38.7890   37.3700   42.3140 C   0  0  0  0  0  0  0  0  0  0  0  0
   37.9880   41.0000   44.0720 C   0  0  0  0  0  0  0  0  0  0  0  0
   38.5720   37.7210   41.5560 C   0  0  0  0  0  0  0  0  0  0  0  0
   35.9460   42.2120   47.1540 O   0  0  0  0  0  0  0  0  0  0  0  0
   36.6880   41.4680   46.1650 C   0  0  0  0  0  0  0  0  0  0  0  0
  2  6  1  0
  3  1  2  0
  4 13  1  0
  5 13  1  0
  6 10  1  0
  6  7  1  0
  7  4  1  0
  8  2  1  0
  9  3  1  0
 10  5  1  0
 11  9  1  0
 11  8  1  0
 13 12  1  0
M  END
$$$$

     RDKit          3D

 20 24  0  0  0  0  0  0  0  0999 V2000
   39.2530   37.2150   38.0750 C   0  0  0  0  0  0  0  0  0  0  0  0
   37.3040   39.6470   43.8600 C   0  0  0  0  0  0  0  0  0  0  0  0
   38.6290   37.8570   44.3680 C   0  0  0  0  0  0  0  0  0  0  0  0
   37.8680   37.9400   42.2310 C   0  0  0  0  0  0  0  0  0  0  0  0
   40.8740   37.7400   39.9380 C   0  0  0  0  0  0  0  0  0  0  0  0
   40.8170   42.7060   45.0400 C   0  0  0  0  0  0  0  0  0  0  0  0
   39.9540   38.2350   40.7830 C   0  0  0  0  0  0  0  0  0  0  0  0
   36.8830   39.0430   42.5670 C   0  0  0  0  0  0  0  0  0  0  0  0
   39.2240   41.2700   43.9340 N   0  0  0  0  0  0  0  0  0  0  0  0
   38.3330   36.9630   43.1920 C   0  0  0  0  0  0  0  0  0  0  0  0
   37.7890   38.2340   39.7890 C   0  0  0  0  0  0  0  0  0  0  0  0
   38.1860   37.8080   38.6500 C   0  0  0  0  0  0  0  0  0  0  0  0
   38.6000   38.3570   41.0680 C   0  0  0  0  0  0  0  0  0  0  0  0
   39.7060   39.2360   41.8540 C   0  0  0  0  0  0  0  0  0  0  0  0
   39.3650   38.9330   43.3880 C   0  0  0  0  0  0  0  0  0  0  0  0
   40.6610   41.4840   43.7410 C   0  0  0  0  0  0  0  0  0  0  0  0
   39.4370   37.5090   45.2910 O   0  0  0  0  0  0  0  0  0  0  0  0
   38.6450   40.0720   43.8910 C   0  0  0  0  0  0  0  0  0  0  0  0
   37.2780   38.4870   44.8270 C   0  0  0  0  0  0  0  0  0  0  0  0
   40.5600   37.2290   38.6990 C   0  0  0  0  0  0  0  0  0  0  0  0
  1 12  1  0
  1 20  1  0
  2  8  1  0
  2 18  1  0
  2 19  1  0
  3 19  1  0
  3 17  1  0
  4  8  1  0
  4 10  1  0
  7  5  1  0
  7 13  1  0
  7 14  1  0
 10  3  1  0
 12 11  2  0
 13 11  1  0
 13 14  1  0
 13  4  1  0
 14 15  1  0
 15 18  1  0
 15  3  1  0
 16  9  1  0
 16  6  1  0
 18  9  2  3
 20  5  2  0
M  END
$$$$

     RDKit          3D

 20 21  0  0  0  0  0  0  0  0999 V2000
   38.8250   39.0790   41.9150 C   0  0  0  0  0  0  0  0  0  0  0  0
   35.8170   40.4800   47.9190 O   0  0  0  0  0  0  0  0  0  0  0  0
   37.6350   39.2290   44.3690 C   0  0  0  0  0  0  0  0  0  0  0  0
   39.6360   36.9540   39.1040 C   0  0  0  0  0  0  0  0  0  0  0  0
   39.2620   38.1170   41.3680 C   0  0  0  0  0  0  0  0  0  0  0  0
   39.0920   36.4480   43.6620 O   0  0  0  0  0  0  0  0  0  0  0  0
   37.2230   39.9730   45.9730 C   0  0  0  0  0  0  0  0  0  0  0  0
   36.6850   38.9360   43.4540 O   0  0  0  0  0  0  0  0  0  0  0  0
   34.8310   40.0290   45.6740 C   0  0  0  0  0  0  0  0  0  0  0  0
   36.1240   40.6740   46.4660 C   0  0  0  0  0  0  0  0  0  0  0  0
   40.6270   37.5820   38.0340 C   0  0  0  0  0  0  0  0  0  0  0  0
   38.5630   37.5560   42.6330 C   0  0  0  0  0  0  0  0  0  0  0  0
   36.0250   42.0950   46.2620 C   0  0  0  0  0  0  0  0  0  0  0  0
   40.2850   38.2430   41.0740 C   0  0  0  0  0  0  0  0  0  0  0  0
   37.0260   37.6350   42.5880 C   0  0  0  0  0  0  0  0  0  0  0  0
   37.8690   40.6260   44.8060 C   0  0  0  0  0  0  0  0  0  0  0  0
   39.0470   39.2220   39.1800 C   0  0  0  0  0  0  0  0  0  0  0  0
   38.8900   38.8890   37.4730 C   0  0  0  0  0  0  0  0  0  0  0  0
   38.6160   37.9530   39.7240 C   0  0  0  0  0  0  0  0  0  0  0  0
   40.2530   38.6090   37.1450 C   0  0  0  0  0  0  0  0  0  0  0  0
  3  8  1  0
  3 16  1  0
  3  7  1  0
  4 19  1  0
  5  1  1  0
  5 12  1  0
  7 10  1  0
  9 10  1  0
 10  2  1  0
 11  4  1  0
 12  6  1  0
 13 10  1  0
 14  5  1  0
 15 12  1  0
 15  8  1  0
 16  7  1  0
 17 19  1  0
 18 17  1  0
 19  5  1  0
 20 18  1  0
 20 11  1  0
M  END
$$$$
