
     RDKit          3D

 17 19  0  0  0  0  0  0  0  0999 V2000
   39.9560   37.2300   38.6480 O   0  0  0  0  0  0  0  0  0  0  0  0
   39.2640   41.6510   39.3180 C   0  0  0  0  0  0  0  0  0  0  0  0
   39.3460   39.6060   38.2310 C   0  0  0  0  0  0  0  0  0  0  0  0
   35.2790   40.3110   44.2960 N   0  0  0  0  0  0  0  0  0  0  0  0
   40.0500   40.6630   40.1230 C   0  0  0  0  0  0  0  0  0  0  0  0
   38.2840   37.6360   40.4420 C   0  0  0  0  0  0  0  0  0  0  0  0
   40.1460   39.4610   39.3390 N   0  0  0  0  0  0  0  0  0  0  0  0
   37.4120   39.7670   45.9500 S   0  0  0  0  0  0  0  0  0  0  0  0
   38.2910   37.9680   41.8640 C   0  0  0  0  0  0  0  0  0  0  0  0
   38.4780   38.5760   45.4790 C   0  0  0  0  0  0  0  0  0  0  0  0
   36.6370   39.6190   44.3210 C   0  0  0  0  0  0  0  0  0  0  0  0
   38.4350   40.5310   38.4800 C   0  0  0  0  0  0  0  0  0  0  0  0
   37.4170   38.9720   42.2220 N   0  0  0  0  0  0  0  0  0  0  0  0
   38.3680   38.2220   44.1350 C   0  0  0  0  0  0  0  0  0  0  0  0
   39.6710   38.0330   39.7710 C   0  0  0  0  0  0  0  0  0  0  0  0
   39.0350   37.2400   43.0440 S   0  0  0  0  0  0  0  0  0  0  0  0
   37.3690   39.0230   43.5240 C   0  0  0  0  0  0  0  0  0  0  0  0
  2  5  1  0
  3 12  1  0
  3  7  1  0
  7 15  1  0
  7  5  1  0
  9  6  1  0
  9 13  1  0
  9 16  1  0
 10  8  1  0
 11  4  1  0
 11  8  1  0
 12  2  1  0
 13 17  1  0
 14 10  1  0
 15  1  1  0
 15  6  1  0
 16 14  1  0
 17 14  2  0
 17 11  1  0
M  END
$$$$

     RDKit          3D

 14 15  0  0  0  0  0  0  0  0999 V2000
   38.1890   41.7880   43.7750 C   0  0  0  0  0  0  0  0  0  0  0  0
   36.6370   39.7810   44.6620 C   0  0  0  0  0  0  0  0  0  0  0  0
   37.3740   41.0910   44.9030 C   0  0  0  0  0  0  0  0  0  0  0  0
   39.4630   37.9020   41.0980 C   0  0  0  0  0  0  0  0  0  0  0  0
   38.5200   40.8310   42.5980 C   0  0  0  0  0  0  0  0  0  0  0  0
   37.3220   39.9830   42.2290 N   0  0  0  0  0  0  0  0  0  0  0  0
   40.3600   37.0670   40.6400 N   0  0  0  0  0  0  0  0  0  0  0  0
   40.2280   36.5490   39.4560 C   0  0  0  0  0  0  0  0  0  0  0  0
   39.0550   36.8500   38.7140 C   0  0  0  0  0  0  0  0  0  0  0  0
   36.9080   39.1010   43.2960 C   0  0  0  0  0  0  0  0  0  0  0  0
   37.2950   39.3070   40.9340 C   0  0  0  0  0  0  0  0  0  0  0  0
   38.0950   37.6880   39.1970 N   0  0  0  0  0  0  0  0  0  0  0  0
   39.3660   42.2110   44.3900 O   0  0  0  0  0  0  0  0  0  0  0  0
   38.3580   38.2200   40.3760 C   0  0  0  0  0  0  0  0  0  0  0  0
  1 13  1  0
  1  3  1  0
  2  3  2  0
  5  1  1  0
  6  5  1  0
  6 10  1  0
  7  4  1  0
  8  7  2  0
  9 12  2  0
  9  8  1  0
 10  2  1  0
 11  6  1  0
 12 14  1  0
 14 11  1  0
 14  4  2  0
M  END
$$$$

     RDKit          3D

 18 21  0  0  0  0  0  0  0  0999 V2000
   37.7410   39.5810   39.7810 C   0  0  0  0  0  0  0  0  0  0  0  0
   37.6630   38.7140   41.2790 N   0  0  0  0  0  0  0  0  0  0  0  0
   38.7780   39.6910   39.4440 C   0  0  0  0  0  0  0  0  0  0  0  0
   36.5030   39.8950   39.3540 O   0  0  0  0  0  0  0  0  0  0  0  0
   38.6880   38.1230   44.5630 N   0  0  0  0  0  0  0  0  0  0  0  0
   37.3570   40.3480   43.1830 S   0  0  0  0  0  0  0  0  0  0  0  0
   38.5310   39.2170   45.1300 N   0  0  0  0  0  0  0  0  0  0  0  0
   40.3720   38.5600   41.0510 C   0  0  0  0  0  0  0  0  0  0  0  0
   38.0440   37.4550   39.2140 S   0  0  0  0  0  0  0  0  0  0  0  0
   39.8210   37.4200   40.9590 C   0  0  0  0  0  0  0  0  0  0  0  0
   41.6490   40.5870   40.0040 C   0  0  0  0  0  0  0  0  0  0  0  0
   37.8640   37.8220   43.5560 C   0  0  0  0  0  0  0  0  0  0  0  0
   37.4090   39.0690   42.7800 C   0  0  0  0  0  0  0  0  0  0  0  0
   37.9560   40.2520   44.7990 C   0  0  0  0  0  0  0  0  0  0  0  0
   38.2580   37.5470   40.9990 C   0  0  0  0  0  0  0  0  0  0  0  0
   41.0230   39.4540   39.0640 C   0  0  0  0  0  0  0  0  0  0  0  0
   40.2020   39.6790   40.1700 C   0  0  0  0  0  0  0  0  0  0  0  0
   38.0840   41.2750   45.6780 N   0  0  0  0  0  0  0  0  0  0  0  0
  1  4  1  0
  1  2  1  0
  2 13  1  0
  3  1  1  0
  3 17  1  0
  5  7  1  0
  6 14  1  0
  9  1  1  0
  9 15  1  0
 10  8  1  0
 11 17  1  0
 12  5  1  0
 13  6  1  0
 13 12  1  0
 14  7  2  0
 14 18  1  0
 15 10  1  0
 15  2  1  0
 16 11  1  0
 16 17  1  0
 17  8  1  0
M  END
$$$$

     RDKit          3D

  8  7  0  0  0  0  0  0  0  0999 V2000
   38.7380   38.1580   42.8880 P   0  0  0  0  0  0  0  0  0  0  0  0
   37.2300   40.0730   41.7810 C   0  0  0  0  0  0  0  0  0  0  0  0
   39.1700   39.0620   43.8310 O   0  0  0  0  0  0  0  0  0  0  0  0
   38.6190   36.7540   43.4450 O   0  0  0  0  0  0  0  0  0  0  0  0
   39.6390   37.9940   41.6370 O   0  0  0  0  0  0  0  0  0  0  0  0
   36.8210   40.5050   42.8310 O   0  0  0  0  0  0  0  0  0  0  0  0
   37.4690   38.8410   42.4110 C   0  0  0  0  0  0  0  0  0  0  0  0
   37.5050   39.9550   40.6130 O   0  0  0  0  0  0  0  0  0  0  0  0
  1  4  1  0
  1  3  1  0
  2  7  1  0
  2  6  1  0
  5  1  2  0
  7  1  1  0
  8  2  2  0
M  END
$$$$

     RDKit          3D

 20 20  0  0  0  0  0  0  0  0999 V2000
   36.0270   41.1650   45.8530 C   0  0  0  0  0  0  0  0  0  0  0  0
   37.2610   40.7140   46.2870 C   0  0  0  0  0  0  0  0  0  0  0  0
   40.4280   38.5820   38.4050 O   0  0  0  0  0  0  0  0  0  0  0  0
   39.1190   38.3940   41.1740 C   0  0  0  0  0  0  0  0  0  0  0  0
   37.8710   38.5630   40.9840 C   0  0  0  0  0  0  0  0  0  0  0  0
   37.4380   39.3390   44.3410 C   0  0  0  0  0  0  0  0  0  0  0  0
   37.2400   40.0450   40.5210 C   0  0  0  0  0  0  0  0  0  0  0  0
   40.8060   36.4460   39.2270 O   0  0  0  0  0  0  0  0  0  0  0  0
   37.7880   36.7570   43.3170 S   0  0  0  0  0  0  0  0  0  0  0  0
   36.7570   40.1920   39.0540 C   0  0  0  0  0  0  0  0  0  0  0  0
   36.1710   39.6880   43.9490 C   0  0  0  0  0  0  0  0  0  0  0  0
   39.4410   38.7200   42.8080 C   0  0  0  0  0  0  0  0  0  0  0  0
   35.4110   40.5880   44.7570 C   0  0  0  0  0  0  0  0  0  0  0  0
   35.4830   42.6700   46.4930 Cl  0  0  0  0  0  0  0  0  0  0  0  0
   38.2810   38.4690   43.5160 C   0  0  0  0  0  0  0  0  0  0  0  0
   40.5590   37.6550   39.3460 C   0  0  0  0  0  0  0  0  0  0  0  0
   38.2650   40.9540   40.8460 O   0  0  0  0  0  0  0  0  0  0  0  0
   40.5360   38.1060   40.6790 N   0  0  0  0  0  0  0  0  0  0  0  0
   40.6070   39.3430   43.0680 O   0  0  0  0  0  0  0  0  0  0  0  0
   37.9500   39.7870   45.5170 C   0  0  0  0  0  0  0  0  0  0  0  0
  1  2  1  0
  1 14  1  0
  3 16  2  0
  4  5  1  0
  4 12  1  0
  6 20  1  0
  7 10  1  0
  7 17  1  0
  7  5  1  0
  8 16  1  0
 11  6  2  0
 11 13  1  0
 12 19  1  0
 12 15  1  0
 13  1  2  0
 15  9  1  0
 15  6  1  0
 16 18  1  0
 18  4  1  0
 20  2  2  0
M  END
$$$$

     RDKit          3D

 14 15  0  0  0  0  0  0  0  0999 V2000
   39.4160   38.9160   41.7950 C   0  0  0  0  0  0  0  0  0  0  0  0
   39.3270   38.6740   38.9660 C   0  0  0  0  0  0  0  0  0  0  0  0
   37.6120   39.5090   46.3070 N   0  0  0  0  0  0  0  0  0  0  0  0
   37.9660   37.2300   40.8370 C   0  0  0  0  0  0  0  0  0  0  0  0
   38.5280   39.0410   43.9910 C   0  0  0  0  0  0  0  0  0  0  0  0
   38.9730   39.6230   42.8260 C   0  0  0  0  0  0  0  0  0  0  0  0
   40.3220   38.0700   39.8000 C   0  0  0  0  0  0  0  0  0  0  0  0
   37.9550   39.9130   45.0670 C   0  0  0  0  0  0  0  0  0  0  0  0
   39.4670   37.5720   40.9780 C   0  0  0  0  0  0  0  0  0  0  0  0
   38.4820   37.6570   44.1560 F   0  0  0  0  0  0  0  0  0  0  0  0
   38.2330   41.8000   43.4370 C   0  0  0  0  0  0  0  0  0  0  0  0
   38.9570   40.9780   42.6220 C   0  0  0  0  0  0  0  0  0  0  0  0
   38.7490   39.8960   40.3720 S   0  0  0  0  0  0  0  0  0  0  0  0
   37.8250   41.2680   44.7570 C   0  0  0  0  0  0  0  0  0  0  0  0
  1  6  1  0
  2  7  1  0
  2 13  1  0
  5 10  1  0
  5  8  1  0
  6  5  2  0
  7  9  1  0
  8  3  1  0
  9  4  1  0
  9  1  1  0
 11 14  1  0
 12  6  1  0
 12 11  2  0
 13  1  1  0
 14  8  2  0
M  END
$$$$

     RDKit          3D

 20 21  0  0  0  0  0  0  0  0999 V2000
   39.0540   37.5270   44.1010 O   0  0  0  0  0  0  0  0  0  0  0  0
   37.7780   37.5060   40.1870 C   0  0  0  0  0  0  0  0  0  0  0  0
   38.1020   39.9730   45.1420 C   0  0  0  0  0  0  0  0  0  0  0  0
   39.8880   38.5340   40.4150 C   0  0  0  0  0  0  0  0  0  0  0  0
   37.8080   41.8670   43.7930 O   0  0  0  0  0  0  0  0  0  0  0  0
   37.7150   37.4970   38.6650 C   0  0  0  0  0  0  0  0  0  0  0  0
   37.2310   41.2620   45.2050 C   0  0  0  0  0  0  0  0  0  0  0  0
   38.6370   36.1180   36.9160 O   0  0  0  0  0  0  0  0  0  0  0  0
   38.7510   36.6310   38.0310 C   0  0  0  0  0  0  0  0  0  0  0  0
   38.6080   39.6760   43.8700 N   0  0  0  0  0  0  0  0  0  0  0  0
   39.1200   38.3370   41.8490 N   0  0  0  0  0  0  0  0  0  0  0  0
   37.9470   37.5110   41.5780 C   0  0  0  0  0  0  0  0  0  0  0  0
   35.7900   42.9510   46.0690 C   0  0  0  0  0  0  0  0  0  0  0  0
   35.0830   41.6770   45.9640 O   0  0  0  0  0  0  0  0  0  0  0  0
   39.9350   36.6560   38.6090 N   0  0  0  0  0  0  0  0  0  0  0  0
   40.9350   35.7090   37.9990 C   0  0  0  0  0  0  0  0  0  0  0  0
   37.2800   42.7170   46.0150 C   0  0  0  0  0  0  0  0  0  0  0  0
   40.2690   37.1150   39.9490 C   0  0  0  0  0  0  0  0  0  0  0  0
   36.1180   40.7210   46.2320 C   0  0  0  0  0  0  0  0  0  0  0  0
   38.9640   38.4510   43.3750 C   0  0  0  0  0  0  0  0  0  0  0  0
  2 12  1  0
  3  7  1  0
  4 11  1  0
  6  2  1  0
  7  5  1  0
  7 17  1  0
  7 19  1  0
  8  9  2  0
  9 15  1  0
  9  6  1  0
 10  3  1  0
 11 20  1  0
 12 11  1  0
 14 13  1  0
 14 19  1  0
 15 18  1  0
 16 15  1  0
 17 13  1  0
 18  4  1  0
 20 10  1  0
 20  1  2  0
M  END
$$$$

     RDKit          3D

 16 17  0  0  0  0  0  0  0  0999 V2000
   36.7710   39.8660   45.3510 O   0  0  0  0  0  0  0  0  0  0  0  0
   36.0180   41.0320   43.4240 C   0  0  0  0  0  0  0  0  0  0  0  0
   39.8440   41.8660   39.7030 C   0  0  0  0  0  0  0  0  0  0  0  0
   37.8960   37.6100   41.1930 O   0  0  0  0  0  0  0  0  0  0  0  0
   38.4280   37.9940   43.4080 C   0  0  0  0  0  0  0  0  0  0  0  0
   38.6990   37.3930   42.2810 N   0  0  0  0  0  0  0  0  0  0  0  0
   39.2040   41.5980   38.4270 C   0  0  0  0  0  0  0  0  0  0  0  0
   36.7950   39.9320   44.1160 C   0  0  0  0  0  0  0  0  0  0  0  0
   37.5930   39.2210   43.0710 C   0  0  0  0  0  0  0  0  0  0  0  0
   37.5560   39.9260   41.9630 C   0  0  0  0  0  0  0  0  0  0  0  0
   36.6170   41.3120   42.3500 C   0  0  0  0  0  0  0  0  0  0  0  0
   38.1950   40.3670   40.7220 C   0  0  0  0  0  0  0  0  0  0  0  0
   38.8400   37.6980   44.5400 O   0  0  0  0  0  0  0  0  0  0  0  0
   37.5730   40.1900   39.5040 C   0  0  0  0  0  0  0  0  0  0  0  0
   38.1360   40.7640   38.3510 C   0  0  0  0  0  0  0  0  0  0  0  0
   39.3350   41.1210   40.8330 C   0  0  0  0  0  0  0  0  0  0  0  0
  2  8  1  0
  3 16  1  0
  4  6  1  0
  5 13  2  0
  6  5  1  0
  7  3  2  0
  8  1  2  0
  9  5  1  0
  9  8  1  0
 10 12  1  0
 10 11  1  0
 10  9  1  0
 11  2  1  0
 12 16  2  0
 14 12  1  0
 15  7  1  0
 15 14  2  0
M  END
$$$$

     RDKit          3D

 20 21  0  0  0  0  0  0  0  0999 V2000
   39.3530   39.9510   38.1150 O   0  0  0  0  0  0  0  0  0  0  0  0
   39.5480   38.4950   39.9380 C   0  0  0  0  0  0  0  0  0  0  0  0
   36.1150   41.6750   47.3290 N   0  0  0  0  0  0  0  0  0  0  0  0
   36.2130   39.6340   43.7880 C   0  0  0  0  0  0  0  0  0  0  0  0
   39.1640   37.7440   44.3420 N   0  0  0  0  0  0  0  0  0  0  0  0
   39.6470   38.7100   38.6630 C   0  0  0  0  0  0  0  0  0  0  0  0
   35.0740   40.9230   45.3320 C   0  0  0  0  0  0  0  0  0  0  0  0
   39.1310   38.2760   45.0440 N   0  0  0  0  0  0  0  0  0  0  0  0
   35.1850   40.3090   44.0930 C   0  0  0  0  0  0  0  0  0  0  0  0
   37.2150   39.4000   44.3910 C   0  0  0  0  0  0  0  0  0  0  0  0
   38.3500   38.5730   44.1550 C   0  0  0  0  0  0  0  0  0  0  0  0
   38.0550   38.3770   41.8830 C   0  0  0  0  0  0  0  0  0  0  0  0
   36.2010   41.0190   46.1050 C   0  0  0  0  0  0  0  0  0  0  0  0
   40.5790   37.6390   37.9470 C   0  0  0  0  0  0  0  0  0  0  0  0
   37.1300   37.2540   41.4230 C   0  0  0  0  0  0  0  0  0  0  0  0
   39.7400   37.1730   40.1920 O   0  0  0  0  0  0  0  0  0  0  0  0
   38.7760   39.3580   40.7990 C   0  0  0  0  0  0  0  0  0  0  0  0
   37.7540   38.9060   43.2550 N   0  0  0  0  0  0  0  0  0  0  0  0
   40.4060   36.5660   39.0090 C   0  0  0  0  0  0  0  0  0  0  0  0
   37.2520   40.2050   45.6690 C   0  0  0  0  0  0  0  0  0  0  0  0
  2 16  1  0
  2 17  1  0
  4  9  2  0
  4 10  1  0
  5  8  1  0
  6  1  1  0
  6  2  1  0
  7 13  2  0
  9  7  1  0
 10 20  2  0
 11  5  1  0
 12 15  1  0
 12 18  1  0
 13  3  1  0
 14  6  1  0
 14 19  1  0
 17 12  1  0
 18 11  1  0
 18 10  1  0
 19 16  1  0
 20 13  1  0
M  END
$$$$

     RDKit          3D

 15 15  0  0  0  0  0  0  0  0999 V2000
   40.9650   35.8720   38.5790 S   0  0  0  0  0  0  0  0  0  0  0  0
   38.4300   37.2770   38.3330 S   0  0  0  0  0  0  0  0  0  0  0  0
   37.1670   38.6550   43.5180 O   0  0  0  0  0  0  0  0  0  0  0  0
   36.9110   38.0260   40.8400 O   0  0  0  0  0  0  0  0  0  0  0  0
   37.5270   41.1710   44.5220 O   0  0  0  0  0  0  0  0  0  0  0  0
   39.5170   36.0890   37.7970 C   0  0  0  0  0  0  0  0  0  0  0  0
   38.0620   42.6490   42.8810 O   0  0  0  0  0  0  0  0  0  0  0  0
   39.1020   38.4860   40.5570 N   0  0  0  0  0  0  0  0  0  0  0  0
   39.4630   37.5220   39.6910 C   0  0  0  0  0  0  0  0  0  0  0  0
   38.8800   40.4690   42.7730 C   0  0  0  0  0  0  0  0  0  0  0  0
   38.1410   41.5780   43.4440 C   0  0  0  0  0  0  0  0  0  0  0  0
   37.9370   39.3550   42.5130 C   0  0  0  0  0  0  0  0  0  0  0  0
   37.9280   38.5740   41.2360 C   0  0  0  0  0  0  0  0  0  0  0  0
   39.1590   35.2630   36.7810 O   0  0  0  0  0  0  0  0  0  0  0  0
   40.5740   36.8370   39.8970 C   0  0  0  0  0  0  0  0  0  0  0  0
  1 15  1  0
  2  9  1  0
  4 13  2  0
  6  2  1  0
  6  1  1  0
  7 11  2  0
  8 13  1  0
  9 15  1  0
  9  8  1  0
 10 11  1  0
 11  5  1  0
 12 10  1  0
 12  3  1  0
 13 12  1  0
 14  6  2  0
M  END
$$$$

     RDKit          3D

 14 18  0  0  0  0  0  0  0  0999 V2000
   38.9370   37.2740   40.3350 C   0  0  0  0  0  0  0  0  0  0  0  0
   39.0900   39.4960   39.3920 C   0  0  0  0  0  0  0  0  0  0  0  0
   39.0330   37.9920   41.4950 C   0  0  0  0  0  0  0  0  0  0  0  0
   38.2440   40.0210   40.4090 C   0  0  0  0  0  0  0  0  0  0  0  0
   39.1270   37.2960   43.9180 O   0  0  0  0  0  0  0  0  0  0  0  0
   40.0320   37.4140   39.6780 C   0  0  0  0  0  0  0  0  0  0  0  0
   40.2530   39.7790   40.4610 C   0  0  0  0  0  0  0  0  0  0  0  0
   39.0480   39.7420   42.8980 O   0  0  0  0  0  0  0  0  0  0  0  0
   38.4440   37.3620   42.7410 C   0  0  0  0  0  0  0  0  0  0  0  0
   37.4310   36.8010   42.5410 O   0  0  0  0  0  0  0  0  0  0  0  0
   38.2270   38.4730   40.6720 N   0  0  0  0  0  0  0  0  0  0  0  0
   39.9690   39.2540   42.0110 C   0  0  0  0  0  0  0  0  0  0  0  0
   37.1100   39.1620   40.8250 C   0  0  0  0  0  0  0  0  0  0  0  0
   40.1480   38.7270   39.3000 C   0  0  0  0  0  0  0  0  0  0  0  0
  1  6  1  0
  1 11  1  0
  1  3  1  0
  2  4  1  0
  2  7  1  0
  3 12  1  0
  3  9  1  0
  4 11  1  0
  4 13  1  0
  7 12  1  0
  9  5  1  0
 10  9  2  0
 11 13  1  0
 11  3  1  0
 12  8  1  0
 14  2  1  0
 14  6  1  0
 14  7  1  0
M  END
$$$$

     RDKit          3D

 26 28  0  0  0  0  0  0  0  0999 V2000
   38.5480   37.8960   42.4120 C   0  0  0  0  0  0  0  0  0  0  0  0
   39.6240   38.1570   41.4910 N   0  0  0  0  0  0  0  0  0  0  0  0
   41.5890   36.8480   37.5620 C   0  0  0  0  0  0  0  0  0  0  0  0
   39.4250   38.1310   44.6380 O   0  0  0  0  0  0  0  0  0  0  0  0
   40.0140   39.5720   41.5720 C   0  0  0  0  0  0  0  0  0  0  0  0
   41.5660   36.0270   36.4890 C   0  0  0  0  0  0  0  0  0  0  0  0
   35.1560   42.8840   48.3090 O   0  0  0  0  0  0  0  0  0  0  0  0
   38.1540   36.4670   42.7910 C   0  0  0  0  0  0  0  0  0  0  0  0
   35.2190   40.8740   46.3840 C   0  0  0  0  0  0  0  0  0  0  0  0
   41.0480   33.7600   35.5750 C   0  0  0  0  0  0  0  0  0  0  0  0
   33.9510   41.4320   46.7090 C   0  0  0  0  0  0  0  0  0  0  0  0
   41.1470   37.0770   39.9130 N   0  0  0  0  0  0  0  0  0  0  0  0
   41.6900   34.8960   39.0010 C   0  0  0  0  0  0  0  0  0  0  0  0
   37.4860   39.9600   45.7270 C   0  0  0  0  0  0  0  0  0  0  0  0
   33.9930   42.8310   47.4450 C   0  0  0  0  0  0  0  0  0  0  0  0
   37.0460   42.2160   46.7740 C   0  0  0  0  0  0  0  0  0  0  0  0
   41.7140   34.0820   37.9060 C   0  0  0  0  0  0  0  0  0  0  0  0
   39.9400   37.5140   40.4110 C   0  0  0  0  0  0  0  0  0  0  0  0
   38.6350   38.9240   43.5480 C   0  0  0  0  0  0  0  0  0  0  0  0
   36.5250   40.9490   46.2160 C   0  0  0  0  0  0  0  0  0  0  0  0
   37.4750   39.5910   44.1660 C   0  0  0  0  0  0  0  0  0  0  0  0
   36.2810   42.6570   47.6780 C   0  0  0  0  0  0  0  0  0  0  0  0
   41.4250   36.2820   38.8780 C   0  0  0  0  0  0  0  0  0  0  0  0
   41.4690   34.6180   36.6690 C   0  0  0  0  0  0  0  0  0  0  0  0
   38.9310   37.1150   39.8280 O   0  0  0  0  0  0  0  0  0  0  0  0
   39.0630   40.1140   42.5790 C   0  0  0  0  0  0  0  0  0  0  0  0
  1  8  1  0
  1 19  1  0
  2  5  1  0
  2  1  1  0
  3 23  1  0
  5 26  1  0
  6 24  1  0
  6  3  2  0
  9 11  1  0
 10 24  1  0
 11 15  1  0
 12 18  1  0
 14 20  1  0
 15  7  1  0
 16 22  1  0
 17 13  1  0
 18  2  1  0
 19 21  1  0
 19  4  1  0
 20  9  2  0
 20 16  1  0
 21 14  2  3
 22  7  1  0
 23 13  2  0
 23 12  1  0
 24 17  2  0
 25 18  2  0
 26 19  1  0
M  END
$$$$

     RDKit          3D

 19 21  0  0  0  0  0  0  0  0999 V2000
   38.0650   39.0130   38.8360 C   0  0  0  0  0  0  0  0  0  0  0  0
   40.8760   36.0750   40.2770 C   0  0  0  0  0  0  0  0  0  0  0  0
   37.2640   41.9710   45.1970 O   0  0  0  0  0  0  0  0  0  0  0  0
   36.8710   40.1880   42.1480 C   0  0  0  0  0  0  0  0  0  0  0  0
   39.5360   37.0540   38.4230 C   0  0  0  0  0  0  0  0  0  0  0  0
   37.8290   39.7360   41.2680 C   0  0  0  0  0  0  0  0  0  0  0  0
   36.1530   42.6640   43.4120 O   0  0  0  0  0  0  0  0  0  0  0  0
   40.4350   36.0090   38.8870 C   0  0  0  0  0  0  0  0  0  0  0  0
   39.0290   37.9430   39.3600 C   0  0  0  0  0  0  0  0  0  0  0  0
   40.3210   36.9710   41.2330 N   0  0  0  0  0  0  0  0  0  0  0  0
   38.5550   38.4960   41.8250 C   0  0  0  0  0  0  0  0  0  0  0  0
   38.5690   37.1780   43.8230 O   0  0  0  0  0  0  0  0  0  0  0  0
   38.1350   39.2750   45.6440 N   0  0  0  0  0  0  0  0  0  0  0  0
   37.4750   39.9820   39.7980 C   0  0  0  0  0  0  0  0  0  0  0  0
   37.4520   40.6450   43.4030 C   0  0  0  0  0  0  0  0  0  0  0  0
   38.1240   39.6040   44.1770 C   0  0  0  0  0  0  0  0  0  0  0  0
   39.2870   37.8270   40.8040 C   0  0  0  0  0  0  0  0  0  0  0  0
   36.9900   41.9060   43.7460 C   0  0  0  0  0  0  0  0  0  0  0  0
   38.5690   38.5080   43.3300 C   0  0  0  0  0  0  0  0  0  0  0  0
  1  9  2  0
  1 14  1  0
  2 10  2  0
  4 15  1  0
  5  8  2  0
  5  9  1  0
  6 11  1  0
  6  4  1  0
  7 18  2  0
  8  2  1  0
  9 17  1  0
 11 19  1  0
 14  6  2  0
 15 18  1  0
 15 16  1  0
 16 13  1  0
 17 10  1  0
 17 11  2  0
 18  3  1  0
 19 12  1  0
 19 16  1  0
M  END
$$$$

     RDKit          3D

 19 20  0  0  0  0  0  0  0  0999 V2000
   37.9110   40.9110   41.9910 O   0  0  0  0  0  0  0  0  0  0  0  0
   35.7850   42.4130   46.4930 C   0  0  0  0  0  0  0  0  0  0  0  0
   39.8260   37.3460   40.4050 C   0  0  0  0  0  0  0  0  0  0  0  0
   38.9910   37.9070   41.5170 C   0  0  0  0  0  0  0  0  0  0  0  0
   37.5370   39.5600   42.4240 C   0  0  0  0  0  0  0  0  0  0  0  0
   38.5670   39.6010   44.7820 C   0  0  0  0  0  0  0  0  0  0  0  0
   35.2620   41.1740   46.0770 C   0  0  0  0  0  0  0  0  0  0  0  0
   37.4190   39.1280   39.9720 O   0  0  0  0  0  0  0  0  0  0  0  0
   39.6030   37.3250   39.0820 O   0  0  0  0  0  0  0  0  0  0  0  0
   40.9230   36.6610   40.7350 N   0  0  0  0  0  0  0  0  0  0  0  0
   38.5460   39.1150   43.3960 N   0  0  0  0  0  0  0  0  0  0  0  0
   37.6370   38.5200   41.2490 C   0  0  0  0  0  0  0  0  0  0  0  0
   35.7110   39.2230   44.8680 F   0  0  0  0  0  0  0  0  0  0  0  0
   37.1120   42.8040   46.3080 C   0  0  0  0  0  0  0  0  0  0  0  0
   36.1390   40.3370   45.4240 C   0  0  0  0  0  0  0  0  0  0  0  0
   34.8500   43.1070   47.2150 F   0  0  0  0  0  0  0  0  0  0  0  0
   37.9820   41.9480   45.6770 C   0  0  0  0  0  0  0  0  0  0  0  0
   39.8120   38.9660   42.5180 C   0  0  0  0  0  0  0  0  0  0  0  0
   37.5420   40.7050   45.2510 C   0  0  0  0  0  0  0  0  0  0  0  0
  2 16  1  0
  3 10  1  0
  4  3  1  0
  4 18  1  0
  5  1  1  0
  5 11  1  0
  6 19  1  0
  7  2  2  0
  9  3  2  0
 11  6  1  0
 12  8  1  0
 12  4  1  0
 12  5  1  0
 13 15  1  0
 14  2  1  0
 15  7  1  0
 17 14  2  0
 18 11  1  0
 19 15  2  0
 19 17  1  0
M  END
$$$$

     RDKit          3D

 10  9  0  0  0  0  0  0  0  0999 V2000
   38.9240   38.0740   43.4230 C   0  0  0  0  0  0  0  0  0  0  0  0
   37.6080   38.4130   44.0570 C   0  0  0  0  0  0  0  0  0  0  0  0
   38.3560   39.8420   41.9840 O   0  0  0  0  0  0  0  0  0  0  0  0
   36.6530   37.6710   42.9480 C   0  0  0  0  0  0  0  0  0  0  0  0
   38.8800   36.5610   43.2700 O   0  0  0  0  0  0  0  0  0  0  0  0
   35.8700   40.6180   44.1820 C   0  0  0  0  0  0  0  0  0  0  0  0
   39.6150   38.1570   41.1050 O   0  0  0  0  0  0  0  0  0  0  0  0
   36.4850   40.1860   45.4580 C   0  0  0  0  0  0  0  0  0  0  0  0
   39.0160   38.7180   42.0750 C   0  0  0  0  0  0  0  0  0  0  0  0
   37.8470   39.4800   45.1330 C   0  0  0  0  0  0  0  0  0  0  0  0
  1  5  1  0
  1  2  1  0
  2  4  1  0
  2 10  1  0
  3  9  1  0
  6  8  1  0
  7  9  2  0
  9  1  1  0
 10  8  1  0
M  END
$$$$

     RDKit          3D

 12 12  0  0  0  0  0  0  0  0999 V2000
   37.2240   42.5870   44.6610 C   0  0  0  0  0  0  0  0  0  0  0  0
   38.0550   42.2980   42.3080 O   0  0  0  0  0  0  0  0  0  0  0  0
   37.7390   38.9140   43.3520 C   0  0  0  0  0  0  0  0  0  0  0  0
   37.6570   40.4170   45.7470 C   0  0  0  0  0  0  0  0  0  0  0  0
   36.4080   40.3810   45.4800 O   0  0  0  0  0  0  0  0  0  0  0  0
   37.8790   37.7440   43.1420 C   0  0  0  0  0  0  0  0  0  0  0  0
   37.5170   40.4000   43.3710 C   0  0  0  0  0  0  0  0  0  0  0  0
   38.7660   36.4180   43.2340 O   0  0  0  0  0  0  0  0  0  0  0  0
   37.6050   42.9040   45.9470 O   0  0  0  0  0  0  0  0  0  0  0  0
   37.4560   41.2240   42.2190 C   0  0  0  0  0  0  0  0  0  0  0  0
   37.1720   41.1550   44.5670 C   0  0  0  0  0  0  0  0  0  0  0  0
   36.7260   40.9190   41.2530 O   0  0  0  0  0  0  0  0  0  0  0  0
  1  9  1  0
  3  7  2  0
  5  4  1  0
  6  8  1  0
  6  3  2  0
  7 11  1  0
 10  2  1  0
 10  7  1  0
 11  1  1  0
 11  5  1  0
 11  4  1  0
 12 10  2  0
M  END
$$$$

     RDKit          3D

 18 19  0  0  0  0  0  0  0  0999 V2000
   40.0850   36.3920   38.2390 C   0  0  0  0  0  0  0  0  0  0  0  0
   37.4080   39.2640   41.8590 N   0  0  0  0  0  0  0  0  0  0  0  0
   37.9300   37.1390   39.1650 C   0  0  0  0  0  0  0  0  0  0  0  0
   38.7770   36.4680   38.2290 C   0  0  0  0  0  0  0  0  0  0  0  0
   36.9100   41.9130   44.7380 C   0  0  0  0  0  0  0  0  0  0  0  0
   40.1230   37.7290   40.4080 C   0  0  0  0  0  0  0  0  0  0  0  0
   38.0870   37.7810   40.2760 C   0  0  0  0  0  0  0  0  0  0  0  0
   34.8560   40.9440   45.7050 O   0  0  0  0  0  0  0  0  0  0  0  0
   36.0310   41.4740   45.8080 C   0  0  0  0  0  0  0  0  0  0  0  0
   38.9390   38.1690   40.7170 C   0  0  0  0  0  0  0  0  0  0  0  0
   42.0000   37.4780   39.0060 O   0  0  0  0  0  0  0  0  0  0  0  0
   38.4560   37.6130   43.4660 S   0  0  0  0  0  0  0  0  0  0  0  0
   40.7380   36.9720   39.3160 C   0  0  0  0  0  0  0  0  0  0  0  0
   36.8670   39.7310   43.0840 C   0  0  0  0  0  0  0  0  0  0  0  0
   36.7790   41.7150   42.9640 S   0  0  0  0  0  0  0  0  0  0  0  0
   38.3720   38.2700   41.9470 N   0  0  0  0  0  0  0  0  0  0  0  0
   37.9540   39.2310   44.1770 C   0  0  0  0  0  0  0  0  0  0  0  0
   36.7770   41.8880   47.0430 O   0  0  0  0  0  0  0  0  0  0  0  0
  1 13  1  0
  2 14  1  0
  3  7  1  0
  4  1  1  0
  4  3  2  0
  5  9  1  0
  6 10  1  0
  8  9  2  0
  9 18  1  0
 10  7  1  0
 10 16  1  0
 12 17  1  0
 13 11  1  0
 13  6  1  0
 14 15  1  0
 14 17  1  0
 15  5  1  0
 16  2  1  0
 16 12  1  0
M  END
$$$$

     RDKit          3D

  5  4  0  0  0  0  0  0  0  0999 V2000
   37.4180   38.3870   43.5310 O   0  0  0  0  0  0  0  0  0  0  0  0
   38.7220   36.5290   43.3080 O   0  0  0  0  0  0  0  0  0  0  0  0
   38.5330   37.8280   43.4360 C   0  0  0  0  0  0  0  0  0  0  0  0
   39.6060   38.5840   43.4700 N   0  0  0  0  0  0  0  0  0  0  0  0
   40.2020   39.3260   42.5200 O   0  0  0  0  0  0  0  0  0  0  0  0
  2  3  2  0
  3  4  1  0
  3  1  1  0
  5  4  1  0
M  END
$$$$

     RDKit          3D

 10  9  0  0  0  0  0  0  0  0999 V2000
   37.0560   36.8420   42.2860 C   0  0  0  0  0  0  0  0  0  0  0  0
   37.9380   39.4360   40.3150 C   0  0  0  0  0  0  0  0  0  0  0  0
   38.8740   36.6440   43.4610 O   0  0  0  0  0  0  0  0  0  0  0  0
   38.2960   38.7990   42.5130 C   0  0  0  0  0  0  0  0  0  0  0  0
   39.3040   40.1600   39.9960 C   0  0  0  0  0  0  0  0  0  0  0  0
   37.0420   40.7630   42.0650 C   0  0  0  0  0  0  0  0  0  0  0  0
   39.9590   41.1950   40.7740 O   0  0  0  0  0  0  0  0  0  0  0  0
   39.6650   38.8500   42.4080 O   0  0  0  0  0  0  0  0  0  0  0  0
   37.3550   39.4210   41.7130 N   0  0  0  0  0  0  0  0  0  0  0  0
   38.1010   37.2980   42.5200 C   0  0  0  0  0  0  0  0  0  0  0  0
  1 10  2  0
  2  9  1  0
  4  8  1  0
  4 10  1  0
  5  2  1  0
  5  7  1  0
  9  6  1  0
  9  4  1  0
 10  3  1  0
M  END
$$$$

     RDKit          3D

 19 19  0  0  0  0  0  0  0  0999 V2000
   36.8940   40.1290   41.4410 C   0  0  0  0  0  0  0  0  0  0  0  0
   41.5120   34.3460   37.9130 C   0  0  0  0  0  0  0  0  0  0  0  0
   37.1180   39.0010   44.2160 C   0  0  0  0  0  0  0  0  0  0  0  0
   40.8520   35.6360   38.0980 O   0  0  0  0  0  0  0  0  0  0  0  0
   39.3700   38.7590   39.6670 C   0  0  0  0  0  0  0  0  0  0  0  0
   35.2900   40.8200   44.3280 O   0  0  0  0  0  0  0  0  0  0  0  0
   36.7670   41.0340   42.5730 C   0  0  0  0  0  0  0  0  0  0  0  0
   39.5750   37.7420   39.1030 O   0  0  0  0  0  0  0  0  0  0  0  0
   38.4790   38.6170   40.5510 N   0  0  0  0  0  0  0  0  0  0  0  0
   36.3820   41.2840   45.4640 S   0  0  0  0  0  0  0  0  0  0  0  0
   37.8960   40.8620   45.9960 C   0  0  0  0  0  0  0  0  0  0  0  0
   35.5230   41.0300   46.6620 O   0  0  0  0  0  0  0  0  0  0  0  0
   37.7670   38.4780   43.1980 C   0  0  0  0  0  0  0  0  0  0  0  0
   41.1490   36.0580   39.1340 C   0  0  0  0  0  0  0  0  0  0  0  0
   36.1730   40.0200   43.8880 C   0  0  0  0  0  0  0  0  0  0  0  0
   37.7220   39.0180   41.7060 C   0  0  0  0  0  0  0  0  0  0  0  0
   36.3580   42.7440   44.9820 O   0  0  0  0  0  0  0  0  0  0  0  0
   40.4900   36.9200   40.0640 C   0  0  0  0  0  0  0  0  0  0  0  0
   40.3340   40.2530   39.3450 S   0  0  0  0  0  0  0  0  0  0  0  0
  1 16  1  0
  1  7  1  0
  2  4  1  0
  4 14  1  0
  5  9  1  0
  6 10  1  0
  7 15  1  0
  8  5  1  0
  8 18  1  0
 10 11  1  0
 10 12  1  0
 13  3  2  0
 14 18  1  0
 15  3  1  0
 15  6  1  0
 16  9  1  0
 16 13  1  0
 17 10  1  0
 19  5  2  0
M  END
$$$$
