
     RDKit          3D

  9  9  0  0  0  0  0  0  0  0999 V2000
   38.3840   39.1530   41.0290 C   0  0  0  0  0  0  0  0  0  0  0  0
   38.3960   38.6500   42.3940 C   0  0  0  0  0  0  0  0  0  0  0  0
   37.2460   40.1920   41.9280 O   0  0  0  0  0  0  0  0  0  0  0  0
   39.4590   37.7190   44.0660 N   0  0  0  0  0  0  0  0  0  0  0  0
   37.3110   39.8970   40.9520 N   0  0  0  0  0  0  0  0  0  0  0  0
   39.4840   38.8400   43.1980 C   0  0  0  0  0  0  0  0  0  0  0  0
   37.1850   40.7270   39.9650 O   0  0  0  0  0  0  0  0  0  0  0  0
   37.6390   37.6320   42.6660 O   0  0  0  0  0  0  0  0  0  0  0  0
   38.2450   37.1430   43.7590 C   0  0  0  0  0  0  0  0  0  0  0  0
  1  2  1  0
  2  8  1  0
  2  6  2  0
  5  1  1  0
  5  3  1  0
  6  4  1  0
  7  5  1  0
  8  9  1  0
  9  4  2  0
M  END
$$$$

     RDKit          3D

 11 11  0  0  0  0  0  0  0  0999 V2000
   38.0640   36.5230   42.8600 C   0  0  0  0  0  0  0  0  0  0  0  0
   38.3000   37.5570   42.0670 C   0  0  0  0  0  0  0  0  0  0  0  0
   38.4510   37.3400   40.7970 N   0  0  0  0  0  0  0  0  0  0  0  0
   38.1170   38.2690   45.0160 C   0  0  0  0  0  0  0  0  0  0  0  0
   39.7950   40.3220   41.8010 C   0  0  0  0  0  0  0  0  0  0  0  0
   38.1950   38.8270   44.0020 N   0  0  0  0  0  0  0  0  0  0  0  0
   39.0740   38.3970   39.9980 O   0  0  0  0  0  0  0  0  0  0  0  0
   38.2780   35.6300   43.4720 O   0  0  0  0  0  0  0  0  0  0  0  0
   38.5840   39.6560   41.3720 C   0  0  0  0  0  0  0  0  0  0  0  0
   38.4900   39.0090   42.8550 C   0  0  0  0  0  0  0  0  0  0  0  0
   38.2170   39.6100   40.1700 C   0  0  0  0  0  0  0  0  0  0  0  0
  1  8  2  0
  2 10  1  0
  2  1  2  0
  3  2  1  0
  6  4  3  0
  7 11  1  0
  7  3  1  0
  9  5  1  0
  9 10  1  0
 10  6  1  0
 11  9  1  0
M  END
$$$$

     RDKit          3D

 14 14  0  0  0  0  0  0  0  0999 V2000
   38.4780   40.1830   41.7440 C   0  0  0  0  0  0  0  0  0  0  0  0
   37.3360   39.5790   40.9840 O   0  0  0  0  0  0  0  0  0  0  0  0
   37.5570   42.2600   42.8120 O   0  0  0  0  0  0  0  0  0  0  0  0
   38.3180   37.6440   42.6180 C   0  0  0  0  0  0  0  0  0  0  0  0
   37.3560   39.2550   44.6050 C   0  0  0  0  0  0  0  0  0  0  0  0
   37.7730   36.7200   41.9160 O   0  0  0  0  0  0  0  0  0  0  0  0
   38.6570   36.9710   44.5400 O   0  0  0  0  0  0  0  0  0  0  0  0
   39.6290   39.5750   42.3120 C   0  0  0  0  0  0  0  0  0  0  0  0
   38.1750   38.0010   43.9230 C   0  0  0  0  0  0  0  0  0  0  0  0
   37.5300   41.0290   42.7700 C   0  0  0  0  0  0  0  0  0  0  0  0
   40.0480   42.0030   41.9220 O   0  0  0  0  0  0  0  0  0  0  0  0
   39.6280   38.1530   42.1310 N   0  0  0  0  0  0  0  0  0  0  0  0
   39.0390   41.4300   41.0080 C   0  0  0  0  0  0  0  0  0  0  0  0
   36.5490   40.2920   43.8720 C   0  0  0  0  0  0  0  0  0  0  0  0
  1  2  1  0
  1  8  1  0
  1 10  1  0
  4  9  1  0
  6  4  2  0
  9  7  1  0
  9  5  2  0
 10  3  2  0
 10 14  1  0
 12  8  1  0
 12  4  1  0
 13  1  1  0
 13 11  1  0
 14  5  1  0
M  END
$$$$

     RDKit          3D

 12 11  0  0  0  0  0  0  0  0999 V2000
   37.3820   39.3170   43.7380 N   0  0  0  0  0  0  0  0  0  0  0  0
   40.0580   40.0670   40.6160 O   0  0  0  0  0  0  0  0  0  0  0  0
   38.0890   38.6070   42.9440 C   0  0  0  0  0  0  0  0  0  0  0  0
   38.0190   39.5580   39.3350 O   0  0  0  0  0  0  0  0  0  0  0  0
   38.0590   37.1530   43.3470 C   0  0  0  0  0  0  0  0  0  0  0  0
   39.5300   41.4560   40.2890 C   0  0  0  0  0  0  0  0  0  0  0  0
   37.8280   38.6700   41.4060 C   0  0  0  0  0  0  0  0  0  0  0  0
   38.8370   36.8970   44.5320 O   0  0  0  0  0  0  0  0  0  0  0  0
   38.1100   40.5150   44.0480 O   0  0  0  0  0  0  0  0  0  0  0  0
   38.7640   36.5960   42.3100 O   0  0  0  0  0  0  0  0  0  0  0  0
   39.0890   38.9540   40.3250 P   0  0  0  0  0  0  0  0  0  0  0  0
   39.5900   37.8140   39.8620 O   0  0  0  0  0  0  0  0  0  0  0  0
  1  9  1  0
  3  7  1  0
  3  5  1  0
  3  1  1  0
  5  8  1  0
  6  2  1  0
 10  5  1  0
 11  4  2  0
 11  2  1  0
 11  7  1  0
 12 11  1  0
M  END
$$$$

     RDKit          3D

 21 22  0  0  0  0  0  0  0  0999 V2000
   38.6190   38.6930   40.7230 C   0  0  0  0  0  0  0  0  0  0  0  0
   33.1150   40.3370   46.5180 C   0  0  0  0  0  0  0  0  0  0  0  0
   36.1730   39.1850   44.9320 C   0  0  0  0  0  0  0  0  0  0  0  0
   37.5770   38.3000   43.0890 N   0  0  0  0  0  0  0  0  0  0  0  0
   37.4660   38.7630   41.7080 C   0  0  0  0  0  0  0  0  0  0  0  0
   32.1590   41.1540   47.4070 O   0  0  0  0  0  0  0  0  0  0  0  0
   37.9130   39.4590   39.6570 O   0  0  0  0  0  0  0  0  0  0  0  0
   39.7840   36.4710   38.0420 C   0  0  0  0  0  0  0  0  0  0  0  0
   39.1340   37.0350   44.6220 O   0  0  0  0  0  0  0  0  0  0  0  0
   36.9030   38.4720   43.9940 N   0  0  0  0  0  0  0  0  0  0  0  0
   40.7440   36.5410   38.9650 N   0  0  0  0  0  0  0  0  0  0  0  0
   33.6830   42.8730   46.0720 C   0  0  0  0  0  0  0  0  0  0  0  0
   36.5680   41.4610   45.8300 C   0  0  0  0  0  0  0  0  0  0  0  0
   40.3930   37.2480   40.0830 C   0  0  0  0  0  0  0  0  0  0  0  0
   38.3670   37.5350   43.7960 C   0  0  0  0  0  0  0  0  0  0  0  0
   35.2090   42.2150   46.0760 C   0  0  0  0  0  0  0  0  0  0  0  0
   33.9400   41.4480   45.7060 C   0  0  0  0  0  0  0  0  0  0  0  0
   38.4810   37.4050   38.4250 S   0  0  0  0  0  0  0  0  0  0  0  0
   36.5680   40.5740   44.6600 C   0  0  0  0  0  0  0  0  0  0  0  0
   39.2310   37.8680   39.8550 C   0  0  0  0  0  0  0  0  0  0  0  0
   39.7180   35.6030   36.8710 C   0  0  0  0  0  0  0  0  0  0  0  0
  1  7  1  0
  1  5  1  0
  2  6  1  0
  4 15  1  0
  4 10  1  0
  5  4  1  0
  8 18  1  0
  8 11  2  0
 10  3  1  0
 11 14  1  0
 12 16  1  0
 15  9  1  0
 16 13  1  0
 17 12  1  0
 17 16  1  0
 17  2  1  0
 18 20  1  0
 19  3  1  0
 19 13  1  0
 20 14  2  0
 20  1  1  0
 21  8  1  0
M  END
$$$$

     RDKit          3D

 16 18  0  0  0  0  0  0  0  0999 V2000
   38.5330   37.4840   43.3580 C   0  0  0  0  0  0  0  0  0  0  0  0
   37.5540   40.2600   45.3280 C   0  0  0  0  0  0  0  0  0  0  0  0
   37.5930   41.6250   44.5910 C   0  0  0  0  0  0  0  0  0  0  0  0
   39.5090   36.4080   39.1270 C   0  0  0  0  0  0  0  0  0  0  0  0
   37.7760   37.8940   39.6470 C   0  0  0  0  0  0  0  0  0  0  0  0
   38.3680   38.9280   43.6580 C   0  0  0  0  0  0  0  0  0  0  0  0
   40.0280   37.0860   40.3370 C   0  0  0  0  0  0  0  0  0  0  0  0
   38.2130   37.1650   41.9260 C   0  0  0  0  0  0  0  0  0  0  0  0
   38.0040   38.9970   44.7780 C   0  0  0  0  0  0  0  0  0  0  0  0
   38.6340   37.4660   38.4880 C   0  0  0  0  0  0  0  0  0  0  0  0
   38.2110   41.2970   43.2310 C   0  0  0  0  0  0  0  0  0  0  0  0
   38.3780   39.8140   42.7890 N   0  0  0  0  0  0  0  0  0  0  0  0
   38.7020   36.5970   44.3090 O   0  0  0  0  0  0  0  0  0  0  0  0
   40.7040   36.2970   38.3340 O   0  0  0  0  0  0  0  0  0  0  0  0
   37.4000   37.3320   38.3480 O   0  0  0  0  0  0  0  0  0  0  0  0
   38.7370   37.8380   40.7240 N   0  0  0  0  0  0  0  0  0  0  0  0
  1  6  1  0
  1 13  1  0
  3  2  2  0
  4 14  1  0
  4  7  1  0
  5 15  1  0
  5 16  1  0
  6  9  2  0
  7 16  1  0
  8  1  1  0
  9  2  1  0
 10 15  1  0
 10  4  1  0
 10  5  1  0
 11  3  1  0
 12 11  2  0
 12  6  1  0
 16  8  1  0
M  END
$$$$

     RDKit          3D

 11 12  0  0  0  0  0  0  0  0999 V2000
   40.3790   38.7290   42.9610 O   0  0  0  0  0  0  0  0  0  0  0  0
   38.8770   36.8440   43.1340 O   0  0  0  0  0  0  0  0  0  0  0  0
   39.2090   37.6890   39.5420 C   0  0  0  0  0  0  0  0  0  0  0  0
   36.7940   39.1980   39.4590 O   0  0  0  0  0  0  0  0  0  0  0  0
   39.6840   37.4800   38.4870 O   0  0  0  0  0  0  0  0  0  0  0  0
   39.0850   36.7470   40.6020 O   0  0  0  0  0  0  0  0  0  0  0  0
   37.2600   38.0150   41.5830 C   0  0  0  0  0  0  0  0  0  0  0  0
   39.4680   38.7150   41.7810 C   0  0  0  0  0  0  0  0  0  0  0  0
   38.9720   38.9040   40.3430 C   0  0  0  0  0  0  0  0  0  0  0  0
   37.5330   39.0950   40.5100 C   0  0  0  0  0  0  0  0  0  0  0  0
   38.6780   37.4070   41.8350 C   0  0  0  0  0  0  0  0  0  0  0  0
  3  6  1  0
  5  3  2  0
  6 11  1  0
  7 11  1  0
  8 11  1  0
  8  1  1  0
  9  3  1  0
  9 10  1  0
  9  8  1  0
 10  4  1  0
 10  7  1  0
 11  2  1  0
M  END
$$$$

     RDKit          3D

 24 26  0  0  0  0  0  0  0  0999 V2000
   35.2840   42.2220   47.0810 F   0  0  0  0  0  0  0  0  0  0  0  0
   38.6410   40.9830   41.2750 C   0  0  0  0  0  0  0  0  0  0  0  0
   36.0140   41.8470   45.9380 C   0  0  0  0  0  0  0  0  0  0  0  0
   40.1800   37.0640   38.4250 C   0  0  0  0  0  0  0  0  0  0  0  0
   41.1180   41.9940   41.5720 O   0  0  0  0  0  0  0  0  0  0  0  0
   39.3320   38.1280   40.8980 C   0  0  0  0  0  0  0  0  0  0  0  0
   40.4680   41.3300   41.4460 C   0  0  0  0  0  0  0  0  0  0  0  0
   35.2780   42.2150   44.7790 C   0  0  0  0  0  0  0  0  0  0  0  0
   36.9310   40.3160   43.0560 C   0  0  0  0  0  0  0  0  0  0  0  0
   38.5150   40.4760   42.3140 C   0  0  0  0  0  0  0  0  0  0  0  0
   40.2960   38.4560   38.6850 C   0  0  0  0  0  0  0  0  0  0  0  0
   36.1450   40.5660   45.9760 C   0  0  0  0  0  0  0  0  0  0  0  0
   38.4390   37.3690   40.0720 O   0  0  0  0  0  0  0  0  0  0  0  0
   39.2390   37.8840   43.6180 O   0  0  0  0  0  0  0  0  0  0  0  0
   40.2740   40.5320   41.1680 C   0  0  0  0  0  0  0  0  0  0  0  0
   36.8500   40.5350   43.7490 C   0  0  0  0  0  0  0  0  0  0  0  0
   37.8710   39.7310   42.2760 O   0  0  0  0  0  0  0  0  0  0  0  0
   38.4940   37.5330   42.3780 C   0  0  0  0  0  0  0  0  0  0  0  0
   39.2100   39.8480   40.3940 C   0  0  0  0  0  0  0  0  0  0  0  0
   36.0280   42.1990   43.7760 C   0  0  0  0  0  0  0  0  0  0  0  0
   40.0180   39.2690   38.9230 C   0  0  0  0  0  0  0  0  0  0  0  0
   39.0110   36.3860   39.0740 C   0  0  0  0  0  0  0  0  0  0  0  0
   39.4160   36.3200   41.9850 C   0  0  0  0  0  0  0  0  0  0  0  0
   36.5560   39.6370   44.9190 C   0  0  0  0  0  0  0  0  0  0  0  0
  2 10  1  0
  3 12  1  0
  3  1  1  0
  4 11  2  0
  4 22  1  0
  6 18  1  0
  7  5  2  0
  8  3  1  0
 11 21  2  0
 13  6  1  0
 15  2  1  0
 15  7  1  0
 16  9  1  0
 16 20  1  0
 16 24  1  0
 17 10  1  0
 17  9  1  0
 18 23  1  0
 18 14  1  0
 19 21  1  0
 19  6  1  0
 19 15  1  0
 19  2  1  0
 20  8  1  0
 22 13  1  0
 24 12  1  0
M  END
$$$$

     RDKit          3D

 21 23  0  0  0  0  0  0  0  0999 V2000
   36.5350   38.3760   39.7790 O   0  0  0  0  0  0  0  0  0  0  0  0
   37.7190   39.0100   39.8930 C   0  0  0  0  0  0  0  0  0  0  0  0
   38.2140   38.6530   45.7980 N   0  0  0  0  0  0  0  0  0  0  0  0
   41.2130   36.5110   37.9730 C   0  0  0  0  0  0  0  0  0  0  0  0
   39.4830   37.4990   44.3320 O   0  0  0  0  0  0  0  0  0  0  0  0
   39.0440   38.9260   39.3120 C   0  0  0  0  0  0  0  0  0  0  0  0
   37.1390   39.9370   42.0330 C   0  0  0  0  0  0  0  0  0  0  0  0
   38.4600   38.0010   44.4870 C   0  0  0  0  0  0  0  0  0  0  0  0
   40.0910   36.7680   39.9210 N   0  0  0  0  0  0  0  0  0  0  0  0
   37.6150   40.0720   38.7240 C   0  0  0  0  0  0  0  0  0  0  0  0
   40.7610   37.7460   38.0990 N   0  0  0  0  0  0  0  0  0  0  0  0
   39.8110   37.7400   39.2600 N   0  0  0  0  0  0  0  0  0  0  0  0
   37.0890   41.3090   41.3220 O   0  0  0  0  0  0  0  0  0  0  0  0
   37.2160   39.7120   43.3660 C   0  0  0  0  0  0  0  0  0  0  0  0
   38.2700   38.0010   42.2680 O   0  0  0  0  0  0  0  0  0  0  0  0
   37.6630   38.6710   43.5920 C   0  0  0  0  0  0  0  0  0  0  0  0
   38.1150   39.1540   41.4330 C   0  0  0  0  0  0  0  0  0  0  0  0
   36.6560   40.3650   44.4070 C   0  0  0  0  0  0  0  0  0  0  0  0
   35.9180   41.5380   44.7460 O   0  0  0  0  0  0  0  0  0  0  0  0
   39.7840   39.9710   39.7740 O   0  0  0  0  0  0  0  0  0  0  0  0
   40.8660   35.8170   39.0450 C   0  0  0  0  0  0  0  0  0  0  0  0
  2  1  1  0
  2 17  1  0
  4 11  1  0
  4 21  1  0
  5  8  2  0
  6 20  1  0
  6  2  1  0
  7 13  1  0
  7 14  1  0
  8  3  1  0
 10  6  1  0
 10  2  1  0
 11 12  1  0
 12  6  1  0
 12  9  1  0
 14 16  1  0
 14 18  2  3
 15 16  1  0
 16  8  1  0
 17  7  1  0
 17 15  1  0
 18 19  1  0
 21  9  1  0
M  END
$$$$

     RDKit          3D

 20 21  0  0  0  0  0  0  0  0999 V2000
   38.7230   36.8680   41.4320 C   0  0  0  0  0  0  0  0  0  0  0  0
   33.4860   42.0910   45.6070 Cl  0  0  0  0  0  0  0  0  0  0  0  0
   34.8450   41.3320   44.9110 C   0  0  0  0  0  0  0  0  0  0  0  0
   36.7360   41.5920   43.2630 C   0  0  0  0  0  0  0  0  0  0  0  0
   41.1390   38.0780   37.5100 C   0  0  0  0  0  0  0  0  0  0  0  0
   40.2320   37.3680   39.6740 O   0  0  0  0  0  0  0  0  0  0  0  0
   40.8790   38.4190   40.0370 C   0  0  0  0  0  0  0  0  0  0  0  0
   35.6530   42.0670   44.0930 C   0  0  0  0  0  0  0  0  0  0  0  0
   36.5790   39.2990   44.2860 C   0  0  0  0  0  0  0  0  0  0  0  0
   37.2160   40.4760   43.7240 C   0  0  0  0  0  0  0  0  0  0  0  0
   39.3300   37.9900   42.1920 C   0  0  0  0  0  0  0  0  0  0  0  0
   40.5080   38.3780   41.4250 C   0  0  0  0  0  0  0  0  0  0  0  0
   38.0640   42.3940   43.8970 C   0  0  0  0  0  0  0  0  0  0  0  0
   41.1540   36.4530   37.2180 C   0  0  0  0  0  0  0  0  0  0  0  0
   39.2070   36.7770   40.2240 C   0  0  0  0  0  0  0  0  0  0  0  0
   35.4580   39.9100   45.2760 C   0  0  0  0  0  0  0  0  0  0  0  0
   41.4190   38.2860   38.8730 N   0  0  0  0  0  0  0  0  0  0  0  0
   42.1880   38.6040   36.5620 C   0  0  0  0  0  0  0  0  0  0  0  0
   38.9530   38.6480   43.3220 N   0  0  0  0  0  0  0  0  0  0  0  0
   38.6450   40.1330   43.1800 C   0  0  0  0  0  0  0  0  0  0  0  0
  1 11  1  0
  3 16  1  0
  3  2  1  0
  4 10  1  0
  4 13  1  0
  4  8  1  0
  5 17  1  0
  6  7  1  0
  6 15  1  0
  7 17  1  0
  7 12  1  0
  8  3  1  0
  9 16  1  0
 10 20  1  0
 10  9  1  0
 11 19  1  0
 12 11  1  0
 14  5  1  0
 15  1  1  0
 18  5  1  0
 20 19  1  0
M  END
$$$$

     RDKit          3D

 20 20  0  0  0  0  0  0  0  0999 V2000
   37.1290   42.4650   45.5860 N   0  0  0  0  0  0  0  0  0  0  0  0
   38.7830   38.8250   44.0760 N   0  0  0  0  0  0  0  0  0  0  0  0
   38.2310   42.5120   43.1480 S   0  0  0  0  0  0  0  0  0  0  0  0
   39.1810   39.2100   39.9460 O   0  0  0  0  0  0  0  0  0  0  0  0
   40.6570   38.1800   37.4190 F   0  0  0  0  0  0  0  0  0  0  0  0
   37.6620   41.6830   44.5420 C   0  0  0  0  0  0  0  0  0  0  0  0
   39.9060   38.1750   40.4010 C   0  0  0  0  0  0  0  0  0  0  0  0
   40.8800   37.3580   39.5940 C   0  0  0  0  0  0  0  0  0  0  0  0
   39.0420   36.8910   38.3000 F   0  0  0  0  0  0  0  0  0  0  0  0
   36.9480   40.3730   44.6270 C   0  0  0  0  0  0  0  0  0  0  0  0
   36.2060   40.5230   45.9680 C   0  0  0  0  0  0  0  0  0  0  0  0
   40.7110   36.2390   37.4570 F   0  0  0  0  0  0  0  0  0  0  0  0
   40.3430   37.1700   38.1480 C   0  0  0  0  0  0  0  0  0  0  0  0
   36.2410   41.7920   46.3580 C   0  0  0  0  0  0  0  0  0  0  0  0
   38.6500   37.8600   42.8380 S   0  0  0  0  0  0  0  0  0  0  0  0
   37.4060   38.2030   42.2360 O   0  0  0  0  0  0  0  0  0  0  0  0
   37.1940   43.8270   45.4520 N   0  0  0  0  0  0  0  0  0  0  0  0
   39.8920   38.0520   41.8770 N   0  0  0  0  0  0  0  0  0  0  0  0
   38.6300   36.5590   43.2750 O   0  0  0  0  0  0  0  0  0  0  0  0
   37.6690   39.0290   45.0470 C   0  0  0  0  0  0  0  0  0  0  0  0
  1 14  1  0
  2 20  1  0
  3  6  2  0
  4  7  2  0
  5 13  1  0
  6 10  1  0
  6  1  1  0
  7 18  1  0
  8  7  1  0
 10 20  1  0
 10 11  1  0
 11 14  1  0
 12 13  1  0
 13  9  1  0
 13  8  1  0
 15 19  2  0
 15  2  1  0
 16 15  2  0
 17  1  1  0
 18 15  1  0
M  END
$$$$

     RDKit          3D

  9  9  0  0  0  0  0  0  0  0999 V2000
   37.5990   37.8220   42.8170 C   0  0  0  0  0  0  0  0  0  0  0  0
   37.7350   38.0770   39.6180 N   0  0  0  0  0  0  0  0  0  0  0  0
   38.5500   37.8320   43.9500 C   0  0  0  0  0  0  0  0  0  0  0  0
   38.9540   37.6380   39.7800 C   0  0  0  0  0  0  0  0  0  0  0  0
   37.0900   38.5240   40.6710 C   0  0  0  0  0  0  0  0  0  0  0  0
   39.1610   37.7050   40.9900 C   0  0  0  0  0  0  0  0  0  0  0  0
   38.9740   36.7840   44.4740 O   0  0  0  0  0  0  0  0  0  0  0  0
   38.0010   38.0080   41.4470 N   0  0  0  0  0  0  0  0  0  0  0  0
   38.9520   39.0870   43.9680 O   0  0  0  0  0  0  0  0  0  0  0  0
  1  3  1  0
  2  4  1  0
  2  5  1  0
  3  9  2  0
  3  7  1  0
  4  6  1  0
  5  8  1  0
  6  8  1  0
  8  1  1  0
M  END
$$$$

     RDKit          3D

  8  7  0  0  0  0  0  0  0  0999 V2000
   37.0600   39.0000   40.2500 C   0  0  0  0  0  0  0  0  0  0  0  0
   37.4920   38.6950   41.6040 C   0  0  0  0  0  0  0  0  0  0  0  0
   38.3080   37.6810   43.4520 C   0  0  0  0  0  0  0  0  0  0  0  0
   39.5310   38.1520   43.3200 C   0  0  0  0  0  0  0  0  0  0  0  0
   38.1040   37.4180   41.6510 C   0  0  0  0  0  0  0  0  0  0  0  0
   37.5250   39.8890   42.1830 O   0  0  0  0  0  0  0  0  0  0  0  0
   38.4910   36.3710   43.6850 O   0  0  0  0  0  0  0  0  0  0  0  0
   38.1450   38.6240   44.5950 N   0  0  0  0  0  0  0  0  0  0  0  0
  2  1  1  0
  2  5  1  0
  2  6  1  0
  3  4  1  0
  3  7  1  0
  3  8  1  0
  5  3  1  0
M  END
$$$$

     RDKit          3D

 19 20  0  0  0  0  0  0  0  0999 V2000
   38.2640   39.8850   42.4040 C   0  0  0  0  0  0  0  0  0  0  0  0
   38.7650   40.5840   42.1320 S   0  0  0  0  0  0  0  0  0  0  0  0
   40.4910   38.6250   42.3310 S   0  0  0  0  0  0  0  0  0  0  0  0
   38.8660   37.3050   39.5060 F   0  0  0  0  0  0  0  0  0  0  0  0
   40.6160   39.9200   39.0770 O   0  0  0  0  0  0  0  0  0  0  0  0
   39.7160   38.1030   40.0230 C   0  0  0  0  0  0  0  0  0  0  0  0
   38.0340   41.1430   44.3460 C   0  0  0  0  0  0  0  0  0  0  0  0
   40.9180   37.6050   40.0100 F   0  0  0  0  0  0  0  0  0  0  0  0
   37.7360   36.7660   43.1950 S   0  0  0  0  0  0  0  0  0  0  0  0
   37.3170   40.0320   44.8230 C   0  0  0  0  0  0  0  0  0  0  0  0
   37.9080   38.5850   41.3620 S   0  0  0  0  0  0  0  0  0  0  0  0
   39.8060   38.9600   41.2520 C   0  0  0  0  0  0  0  0  0  0  0  0
   39.5920   39.4260   39.8750 C   0  0  0  0  0  0  0  0  0  0  0  0
   37.3220   38.8640   44.2070 C   0  0  0  0  0  0  0  0  0  0  0  0
   37.9530   38.4100   43.1070 C   0  0  0  0  0  0  0  0  0  0  0  0
   36.5200   40.1880   45.9450 N   0  0  0  0  0  0  0  0  0  0  0  0
   38.4490   39.0110   41.8470 C   0  0  0  0  0  0  0  0  0  0  0  0
   38.8060   40.8160   43.2150 C   0  0  0  0  0  0  0  0  0  0  0  0
   38.8610   39.9800   41.0270 C   0  0  0  0  0  0  0  0  0  0  0  0
  2  1  1  0
  2 18  1  0
  4  6  1  0
  7 10  1  0
  8  6  1  0
 10 16  1  0
 12  3  2  0
 13  5  1  0
 13  6  1  0
 13 19  1  0
 13 12  1  0
 14 10  2  3
 15  9  2  0
 15 14  1  0
 17 11  1  0
 17  1  1  0
 17 15  1  0
 19 12  1  0
 19 17  1  0
 19  2  1  0
M  END
$$$$

     RDKit          3D

 15 17  0  0  0  0  0  0  0  0999 V2000
   39.6900   37.2250   40.8060 C   0  0  0  0  0  0  0  0  0  0  0  0
   39.3680   39.7820   42.6900 C   0  0  0  0  0  0  0  0  0  0  0  0
   38.5020   41.5300   45.0240 O   0  0  0  0  0  0  0  0  0  0  0  0
   39.6340   40.9530   41.8990 C   0  0  0  0  0  0  0  0  0  0  0  0
   37.7690   37.8060   41.9940 C   0  0  0  0  0  0  0  0  0  0  0  0
   37.1760   38.9800   42.7850 C   0  0  0  0  0  0  0  0  0  0  0  0
   39.3210   39.6280   41.1640 C   0  0  0  0  0  0  0  0  0  0  0  0
   38.1810   37.2120   40.5930 C   0  0  0  0  0  0  0  0  0  0  0  0
   36.1300   39.1760   43.9230 C   0  0  0  0  0  0  0  0  0  0  0  0
   37.7020   40.8870   44.0390 C   0  0  0  0  0  0  0  0  0  0  0  0
   40.4490   38.5460   41.0800 C   0  0  0  0  0  0  0  0  0  0  0  0
   38.5270   39.7590   40.0840 O   0  0  0  0  0  0  0  0  0  0  0  0
   38.1770   36.9620   42.9460 O   0  0  0  0  0  0  0  0  0  0  0  0
   36.3840   40.3340   44.6940 C   0  0  0  0  0  0  0  0  0  0  0  0
   38.2800   39.5750   43.5730 C   0  0  0  0  0  0  0  0  0  0  0  0
  1 11  1  0
  2  4  1  0
  2 15  1  0
  5  6  1  0
  5 13  1  0
  6 15  1  0
  6  9  1  0
  7 12  1  0
  7  4  1  0
  7  2  1  0
  8  1  1  0
  8  5  1  0
  9 14  1  0
 10 14  1  0
 10  3  1  0
 11  7  1  0
 15 10  1  0
M  END
$$$$

     RDKit          3D

 17 17  0  0  0  0  0  0  0  0999 V2000
   39.7950   37.6550   41.8470 N   0  0  0  0  0  0  0  0  0  0  0  0
   37.1670   40.3540   45.0560 C   0  0  0  0  0  0  0  0  0  0  0  0
   38.9640   38.3700   42.6330 C   0  0  0  0  0  0  0  0  0  0  0  0
   40.0770   38.9400   39.8910 C   0  0  0  0  0  0  0  0  0  0  0  0
   37.8420   39.7310   39.3050 O   0  0  0  0  0  0  0  0  0  0  0  0
   36.6990   40.6670   43.9980 O   0  0  0  0  0  0  0  0  0  0  0  0
   38.1240   37.5180   39.5820 C   0  0  0  0  0  0  0  0  0  0  0  0
   40.9650   36.6240   39.7950 C   0  0  0  0  0  0  0  0  0  0  0  0
   40.2860   36.9830   38.3950 C   0  0  0  0  0  0  0  0  0  0  0  0
   40.6820   37.9500   40.7400 C   0  0  0  0  0  0  0  0  0  0  0  0
   38.8330   36.7740   38.3620 C   0  0  0  0  0  0  0  0  0  0  0  0
   39.0610   37.2030   44.8360 O   0  0  0  0  0  0  0  0  0  0  0  0
   38.0250   38.8060   42.8020 N   0  0  0  0  0  0  0  0  0  0  0  0
   38.6080   38.7910   39.7850 C   0  0  0  0  0  0  0  0  0  0  0  0
   36.7710   41.0220   46.2370 N   0  0  0  0  0  0  0  0  0  0  0  0
   38.0230   39.4010   45.2160 N   0  0  0  0  0  0  0  0  0  0  0  0
   38.4940   38.4650   44.2330 C   0  0  0  0  0  0  0  0  0  0  0  0
  1  3  1  0
  2 16  1  0
  2 15  1  0
  3 13  1  0
  4 10  1  0
  6  2  2  0
  7 14  1  0
  8 10  1  0
  9  8  1  0
 10  1  1  0
 11  9  1  0
 11  7  1  0
 13 17  1  0
 14  5  1  0
 14  4  1  0
 17 12  2  0
 17 16  1  0
M  END
$$$$

     RDKit          3D

 12 15  0  0  0  0  0  0  0  0999 V2000
   39.5100   37.9180   41.2610 C   0  0  0  0  0  0  0  0  0  0  0  0
   38.8930   40.1370   42.1220 C   0  0  0  0  0  0  0  0  0  0  0  0
   39.3280   39.7950   39.6650 C   0  0  0  0  0  0  0  0  0  0  0  0
   39.5460   40.1460   40.9980 C   0  0  0  0  0  0  0  0  0  0  0  0
   38.3540   38.7620   39.7160 C   0  0  0  0  0  0  0  0  0  0  0  0
   37.9530   39.6620   43.1570 C   0  0  0  0  0  0  0  0  0  0  0  0
   38.2060   38.2000   45.3880 N   0  0  0  0  0  0  0  0  0  0  0  0
   40.0160   39.0700   41.9870 C   0  0  0  0  0  0  0  0  0  0  0  0
   38.3360   37.8360   40.4130 C   0  0  0  0  0  0  0  0  0  0  0  0
   38.0550   37.4670   41.5710 C   0  0  0  0  0  0  0  0  0  0  0  0
   38.4080   38.3640   44.0000 C   0  0  0  0  0  0  0  0  0  0  0  0
   37.6770   37.4140   43.0640 C   0  0  0  0  0  0  0  0  0  0  0  0
  1 10  1  0
  1  8  1  0
  2  6  1  0
  3  5  1  0
  3  4  1  0
  4  8  1  0
  4  2  1  0
  5  9  1  0
  6 11  1  0
  8  2  1  0
  9  1  1  0
  9 10  1  0
 10 12  1  0
 11  7  1  0
 12 11  1  0
M  END
$$$$

     RDKit          3D

 14 15  0  0  0  0  0  0  0  0999 V2000
   39.9980   39.5030   40.0970 O   0  0  0  0  0  0  0  0  0  0  0  0
   38.5570   39.6990   42.1260 C   0  0  0  0  0  0  0  0  0  0  0  0
   38.0020   36.8890   43.6750 C   0  0  0  0  0  0  0  0  0  0  0  0
   38.6840   40.4760   43.3830 C   0  0  0  0  0  0  0  0  0  0  0  0
   38.2680   41.8750   43.0190 C   0  0  0  0  0  0  0  0  0  0  0  0
   38.7660   37.4190   40.1190 N   0  0  0  0  0  0  0  0  0  0  0  0
   38.0850   37.8360   43.2320 C   0  0  0  0  0  0  0  0  0  0  0  0
   38.3990   36.5780   41.9940 C   0  0  0  0  0  0  0  0  0  0  0  0
   39.2730   42.4230   42.0250 C   0  0  0  0  0  0  0  0  0  0  0  0
   38.7790   38.2860   42.2400 N   0  0  0  0  0  0  0  0  0  0  0  0
   39.2000   41.7180   40.7390 C   0  0  0  0  0  0  0  0  0  0  0  0
   38.7110   37.4010   41.3570 C   0  0  0  0  0  0  0  0  0  0  0  0
   39.2870   40.2000   40.9730 C   0  0  0  0  0  0  0  0  0  0  0  0
   38.1430   35.8140   42.8740 C   0  0  0  0  0  0  0  0  0  0  0  0
  2 10  1  0
  2  4  1  0
  5  4  1  0
  6 12  2  0
  7  3  1  0
  8 14  1  0
  9  5  1  0
 10  7  1  0
 11 13  1  0
 11  9  1  0
 12  8  1  0
 12 10  1  0
 13  1  1  0
 13  2  1  0
 14  3  1  0
M  END
$$$$

     RDKit          3D

 20 21  0  0  0  0  0  0  0  0999 V2000
   38.2950   37.6100   43.9430 C   0  0  0  0  0  0  0  0  0  0  0  0
   37.7790   37.7520   41.8170 N   0  0  0  0  0  0  0  0  0  0  0  0
   37.5370   38.0050   42.9990 N   0  0  0  0  0  0  0  0  0  0  0  0
   38.8760   36.3840   44.1220 O   0  0  0  0  0  0  0  0  0  0  0  0
   38.2370   38.5540   45.0070 N   0  0  0  0  0  0  0  0  0  0  0  0
   38.5960   37.1050   39.5990 C   0  0  0  0  0  0  0  0  0  0  0  0
   39.1020   40.4280   41.8500 S   0  0  0  0  0  0  0  0  0  0  0  0
   41.2390   36.2340   36.9730 C   0  0  0  0  0  0  0  0  0  0  0  0
   36.6100   41.8890   44.6120 C   0  0  0  0  0  0  0  0  0  0  0  0
   39.2780   39.1390   40.5770 C   0  0  0  0  0  0  0  0  0  0  0  0
   38.9740   37.7830   40.8610 C   0  0  0  0  0  0  0  0  0  0  0  0
   40.5900   39.2210   39.3660 S   0  0  0  0  0  0  0  0  0  0  0  0
   41.4310   37.7080   37.4310 O   0  0  0  0  0  0  0  0  0  0  0  0
   40.4860   37.7210   38.5480 C   0  0  0  0  0  0  0  0  0  0  0  0
   38.6250   41.8420   43.1030 C   0  0  0  0  0  0  0  0  0  0  0  0
   39.6480   36.9120   38.8810 N   0  0  0  0  0  0  0  0  0  0  0  0
   37.4720   39.6250   44.8650 C   0  0  0  0  0  0  0  0  0  0  0  0
   38.8370   41.9280   44.5370 C   0  0  0  0  0  0  0  0  0  0  0  0
   37.6960   42.3720   45.4510 C   0  0  0  0  0  0  0  0  0  0  0  0
   36.5340   40.3650   44.1300 C   0  0  0  0  0  0  0  0  0  0  0  0
  1  4  2  0
  1  5  1  0
  2  3  1  0
  3  1  1  0
  7 15  1  0
  8 13  1  0
  9 19  1  0
 10 12  1  0
 10 11  1  0
 10  7  1  0
 11  6  1  0
 11  2  1  0
 13 14  1  0
 14 16  2  0
 14 12  1  0
 15 18  1  0
 16  6  1  0
 17  5  2  0
 18 19  1  0
 20  9  1  0
 20 17  1  0
M  END
$$$$

     RDKit          3D

 14 16  0  0  0  0  0  0  0  0999 V2000
   39.6480   40.8750   40.1950 C   0  0  0  0  0  0  0  0  0  0  0  0
   36.8600   40.8540   44.4480 C   0  0  0  0  0  0  0  0  0  0  0  0
   40.4040   39.1170   41.0020 C   0  0  0  0  0  0  0  0  0  0  0  0
   39.2890   41.0220   41.5680 C   0  0  0  0  0  0  0  0  0  0  0  0
   37.8880   38.7760   44.6680 C   0  0  0  0  0  0  0  0  0  0  0  0
   37.1840   39.6740   45.3420 C   0  0  0  0  0  0  0  0  0  0  0  0
   39.3110   38.6680   42.7300 C   0  0  0  0  0  0  0  0  0  0  0  0
   40.2400   39.7040   40.0300 C   0  0  0  0  0  0  0  0  0  0  0  0
   38.3000   40.4120   42.6220 C   0  0  0  0  0  0  0  0  0  0  0  0
   39.6200   38.9900   41.7790 C   0  0  0  0  0  0  0  0  0  0  0  0
   36.4970   39.4760   46.4080 O   0  0  0  0  0  0  0  0  0  0  0  0
   38.2010   38.9060   43.2210 C   0  0  0  0  0  0  0  0  0  0  0  0
   39.2640   40.2090   42.2290 C   0  0  0  0  0  0  0  0  0  0  0  0
   37.4310   41.1700   43.2680 C   0  0  0  0  0  0  0  0  0  0  0  0
  1  4  1  0
  2  6  1  0
  5  6  1  0
  6 11  2  0
  8  1  1  0
  8  3  1  0
  9 12  1  0
  9 14  1  0
 10  3  1  0
 10 13  1  0
 10  7  1  0
 12  7  1  0
 12  5  1  0
 13  4  1  0
 13  9  1  0
 14  2  2  0
M  END
$$$$
