
     RDKit          3D

 13 15  0  0  0  0  0  0  0  0999 V2000
   38.6220   39.9430   41.9980 N   0  0  0  0  0  0  0  0  0  0  0  0
   36.6660   40.2380   46.0260 C   0  0  0  0  0  0  0  0  0  0  0  0
   38.0160   40.0230   45.5910 C   0  0  0  0  0  0  0  0  0  0  0  0
   37.8550   39.3060   44.1870 C   0  0  0  0  0  0  0  0  0  0  0  0
   34.6560   39.3280   45.2990 C   0  0  0  0  0  0  0  0  0  0  0  0
   34.5550   40.9430   46.8780 C   0  0  0  0  0  0  0  0  0  0  0  0
   38.9480   40.4040   41.7120 C   0  0  0  0  0  0  0  0  0  0  0  0
   38.6310   39.9660   43.3790 C   0  0  0  0  0  0  0  0  0  0  0  0
   36.5580   38.9580   44.0780 N   0  0  0  0  0  0  0  0  0  0  0  0
   35.9160   39.4570   45.1260 C   0  0  0  0  0  0  0  0  0  0  0  0
   33.8200   40.0750   46.1800 C   0  0  0  0  0  0  0  0  0  0  0  0
   39.0820   41.2330   42.9740 C   0  0  0  0  0  0  0  0  0  0  0  0
   36.0040   40.8460   46.9800 C   0  0  0  0  0  0  0  0  0  0  0  0
  1  8  1  0
  2 13  2  0
  3  2  1  0
  4  3  1  0
  5 11  1  0
  6 13  1  0
  7  1  1  0
  7 12  1  0
  8 12  1  0
  8  4  1  0
  9  4  1  0
  9 10  1  0
 10  5  2  0
 10  2  1  0
 11  6  1  0
M  END
$$$$

     RDKit          3D

 19 20  0  0  0  0  0  0  0  0999 V2000
   38.1100   40.0960   46.0680 C   0  0  0  0  0  0  0  0  0  0  0  0
   40.2870   37.2400   40.0180 C   0  0  0  0  0  0  0  0  0  0  0  0
   35.6290   39.0270   45.4280 C   0  0  0  0  0  0  0  0  0  0  0  0
   40.5650   37.4740   38.6760 C   0  0  0  0  0  0  0  0  0  0  0  0
   37.8060   38.2910   44.2480 C   0  0  0  0  0  0  0  0  0  0  0  0
   38.2350   37.5160   38.0950 C   0  0  0  0  0  0  0  0  0  0  0  0
   37.9400   37.1400   39.4120 C   0  0  0  0  0  0  0  0  0  0  0  0
   38.5710   36.7460   41.5860 N   0  0  0  0  0  0  0  0  0  0  0  0
   39.0390   37.0370   42.8030 C   0  0  0  0  0  0  0  0  0  0  0  0
   35.8020   40.1830   46.2950 C   0  0  0  0  0  0  0  0  0  0  0  0
   37.0540   40.5230   46.7290 N   0  0  0  0  0  0  0  0  0  0  0  0
   38.5190   38.1640   43.0550 N   0  0  0  0  0  0  0  0  0  0  0  0
   38.9910   37.0230   40.3440 C   0  0  0  0  0  0  0  0  0  0  0  0
   34.8210   40.6890   46.7470 O   0  0  0  0  0  0  0  0  0  0  0  0
   34.1760   38.8190   45.2520 C   0  0  0  0  0  0  0  0  0  0  0  0
   39.5730   37.6010   37.8050 C   0  0  0  0  0  0  0  0  0  0  0  0
   39.0610   36.2190   43.7260 O   0  0  0  0  0  0  0  0  0  0  0  0
   38.4880   39.4080   45.0540 C   0  0  0  0  0  0  0  0  0  0  0  0
   36.3990   38.7250   44.1670 C   0  0  0  0  0  0  0  0  0  0  0  0
  1 11  2  0
  2 13  1  0
  3 15  1  0
  3 10  1  0
  4  2  2  0
  5 12  1  0
  5 18  1  0
  6  7  1  0
  7 13  2  0
  8  9  1  0
  9 12  1  0
  9 17  1  0
 10 11  1  0
 10 14  2  0
 13  8  1  0
 16  6  2  0
 16  4  1  0
 18  1  1  0
 19  5  1  0
 19  3  1  0
M  END
$$$$

     RDKit          3D

 15 15  0  0  0  0  0  0  0  0999 V2000
   40.1260   37.1530   39.5290 C   0  0  0  0  0  0  0  0  0  0  0  0
   36.8510   38.1810   43.9940 C   0  0  0  0  0  0  0  0  0  0  0  0
   38.0320   37.6370   44.4620 C   0  0  0  0  0  0  0  0  0  0  0  0
   37.2740   40.0480   46.8430 O   0  0  0  0  0  0  0  0  0  0  0  0
   35.9050   40.3950   46.9090 C   0  0  0  0  0  0  0  0  0  0  0  0
   38.2290   36.3500   42.3600 C   0  0  0  0  0  0  0  0  0  0  0  0
   41.1480   37.1190   41.5500 O   0  0  0  0  0  0  0  0  0  0  0  0
   38.3590   38.2330   45.6170 C   0  0  0  0  0  0  0  0  0  0  0  0
   38.6370   36.4480   43.8060 C   0  0  0  0  0  0  0  0  0  0  0  0
   40.5300   36.4170   40.6530 C   0  0  0  0  0  0  0  0  0  0  0  0
   38.7070   37.4170   40.1450 C   0  0  0  0  0  0  0  0  0  0  0  0
   40.8140   36.8750   38.8210 O   0  0  0  0  0  0  0  0  0  0  0  0
   36.5510   39.1990   44.8350 C   0  0  0  0  0  0  0  0  0  0  0  0
   37.4280   39.2600   45.8180 C   0  0  0  0  0  0  0  0  0  0  0  0
   38.8130   37.4340   41.6340 N   0  0  0  0  0  0  0  0  0  0  0  0
  1 11  1  0
  1 10  1  0
  2  3  2  0
  2 13  1  0
  3  8  1  0
  4  5  1  0
  6  9  1  0
  8 14  2  0
  9  3  1  0
 10  7  1  0
 11 15  1  0
 12  1  2  0
 13 14  1  0
 14  4  1  0
 15  6  1  0
M  END
$$$$

     RDKit          3D

 10 10  0  0  0  0  0  0  0  0999 V2000
   37.3000   38.7140   43.5280 C   0  0  0  0  0  0  0  0  0  0  0  0
   38.9960   35.5520   43.0900 O   0  0  0  0  0  0  0  0  0  0  0  0
   37.3560   39.3530   41.2420 C   0  0  0  0  0  0  0  0  0  0  0  0
   37.0400   38.8680   45.0640 C   0  0  0  0  0  0  0  0  0  0  0  0
   37.1910   39.7200   42.5790 C   0  0  0  0  0  0  0  0  0  0  0  0
   37.6480   37.5870   41.1970 S   0  0  0  0  0  0  0  0  0  0  0  0
   38.7550   36.5780   43.6300 C   0  0  0  0  0  0  0  0  0  0  0  0
   38.0120   39.3710   46.0280 C   0  0  0  0  0  0  0  0  0  0  0  0
   39.2890   36.9090   44.7330 O   0  0  0  0  0  0  0  0  0  0  0  0
   37.6980   37.5170   42.9480 C   0  0  0  0  0  0  0  0  0  0  0  0
  1  4  1  0
  2  7  2  0
  3  5  2  0
  4  8  1  0
  5  1  1  0
  6  3  1  0
  6 10  1  0
  7  9  1  0
 10  1  2  0
 10  7  1  0
M  END
$$$$

     RDKit          3D

 10 10  0  0  0  0  0  0  0  0999 V2000
   38.3920   39.4610   46.6310 N   0  0  0  0  0  0  0  0  0  0  0  0
   38.5900   39.5800   41.9090 C   0  0  0  0  0  0  0  0  0  0  0  0
   36.3620   39.5850   45.8090 O   0  0  0  0  0  0  0  0  0  0  0  0
   38.1310   36.9350   41.6380 C   0  0  0  0  0  0  0  0  0  0  0  0
   37.4020   39.0440   45.5060 C   0  0  0  0  0  0  0  0  0  0  0  0
   37.4720   38.3770   41.4560 C   0  0  0  0  0  0  0  0  0  0  0  0
   37.8970   38.8100   44.2400 N   0  0  0  0  0  0  0  0  0  0  0  0
   38.1590   36.4450   43.1660 C   0  0  0  0  0  0  0  0  0  0  0  0
   38.7730   37.4820   44.0760 C   0  0  0  0  0  0  0  0  0  0  0  0
   38.3860   40.1300   43.4320 C   0  0  0  0  0  0  0  0  0  0  0  0
  2 10  1  0
  4  8  1  0
  5  3  2  0
  5  1  1  0
  6  4  1  0
  6  2  1  0
  7  5  1  0
  8  9  1  0
  9  7  1  0
 10  7  1  0
M  END
$$$$

     RDKit          3D

 10 10  0  0  0  0  0  0  0  0999 V2000
   37.2310   39.0990   43.0870 C   0  0  0  0  0  0  0  0  0  0  0  0
   37.9110   38.1160   43.7720 C   0  0  0  0  0  0  0  0  0  0  0  0
   38.0040   37.1810   41.2520 O   0  0  0  0  0  0  0  0  0  0  0  0
   37.8200   39.2450   46.0840 C   0  0  0  0  0  0  0  0  0  0  0  0
   38.2730   38.1200   45.1120 C   0  0  0  0  0  0  0  0  0  0  0  0
   36.5960   39.9950   45.7650 O   0  0  0  0  0  0  0  0  0  0  0  0
   38.3390   36.8270   42.6900 S   0  0  0  0  0  0  0  0  0  0  0  0
   39.7900   36.7920   42.7190 O   0  0  0  0  0  0  0  0  0  0  0  0
   37.8290   40.5800   45.3340 C   0  0  0  0  0  0  0  0  0  0  0  0
   37.6020   35.6920   43.2370 O   0  0  0  0  0  0  0  0  0  0  0  0
  1  2  2  0
  2  5  1  0
  3  7  1  0
  4  5  1  0
  6  4  1  0
  7  8  1  0
  7 10  1  0
  7  2  1  0
  9  6  1  0
  9  4  1  0
M  END
$$$$

     RDKit          3D

 14 15  0  0  0  0  0  0  0  0999 V2000
   36.6320   38.2020   45.5700 C   0  0  0  0  0  0  0  0  0  0  0  0
   38.5690   38.6950   41.7100 C   0  0  0  0  0  0  0  0  0  0  0  0
   37.2790   38.9320   46.7080 C   0  0  0  0  0  0  0  0  0  0  0  0
   40.6460   36.8870   40.8500 C   0  0  0  0  0  0  0  0  0  0  0  0
   39.8360   37.0620   39.7140 O   0  0  0  0  0  0  0  0  0  0  0  0
   37.1630   39.5100   43.5680 C   0  0  0  0  0  0  0  0  0  0  0  0
   37.6370   39.5890   42.1650 C   0  0  0  0  0  0  0  0  0  0  0  0
   38.2000   36.0670   44.2610 O   0  0  0  0  0  0  0  0  0  0  0  0
   38.0870   37.2280   43.7170 C   0  0  0  0  0  0  0  0  0  0  0  0
   39.7970   36.5510   41.9980 N   0  0  0  0  0  0  0  0  0  0  0  0
   37.1310   37.4500   46.6540 O   0  0  0  0  0  0  0  0  0  0  0  0
   36.6650   40.5150   44.0840 O   0  0  0  0  0  0  0  0  0  0  0  0
   38.8070   37.5060   42.4160 C   0  0  0  0  0  0  0  0  0  0  0  0
   37.3200   38.2720   44.2650 C   0  0  0  0  0  0  0  0  0  0  0  0
  1 14  1  0
  1 11  1  0
  1  3  1  0
  2  7  1  0
  2 13  2  0
  4 10  1  0
  5  4  1  0
  6 12  2  0
  6 14  1  0
  7  6  1  0
  9  8  1  0
  9 14  2  0
 10 13  1  0
 11  3  1  0
 13  9  1  0
M  END
$$$$

     RDKit          3D

 12 13  0  0  0  0  0  0  0  0999 V2000
   38.7860   37.5050   42.2090 O   0  0  0  0  0  0  0  0  0  0  0  0
   35.1980   40.1470   44.4510 F   0  0  0  0  0  0  0  0  0  0  0  0
   38.6940   36.0590   43.7030 O   0  0  0  0  0  0  0  0  0  0  0  0
   38.5660   38.1970   45.4080 C   0  0  0  0  0  0  0  0  0  0  0  0
   36.8300   39.9080   45.8600 C   0  0  0  0  0  0  0  0  0  0  0  0
   36.3960   40.9260   46.6260 O   0  0  0  0  0  0  0  0  0  0  0  0
   36.7920   38.6770   43.8400 C   0  0  0  0  0  0  0  0  0  0  0  0
   36.1810   39.5600   44.7270 C   0  0  0  0  0  0  0  0  0  0  0  0
   38.0230   38.1140   44.2340 C   0  0  0  0  0  0  0  0  0  0  0  0
   37.9560   39.1680   46.2880 C   0  0  0  0  0  0  0  0  0  0  0  0
   38.6000   37.1860   43.2410 C   0  0  0  0  0  0  0  0  0  0  0  0
   39.8230   37.7540   42.7780 N   0  0  0  0  0  0  0  0  0  0  0  0
  1 12  1  0
  1 11  1  0
  2  8  1  0
  4 10  1  0
  5 10  2  0
  5  6  1  0
  7  9  1  0
  7  8  2  0
  8  5  1  0
  9  4  2  0
 11  3  1  0
 11  9  1  0
 12 11  1  0
M  END
$$$$

     RDKit          3D

 13 13  0  0  0  0  0  0  0  0999 V2000
   38.2430   39.0870   41.9120 C   0  0  0  0  0  0  0  0  0  0  0  0
   38.0700   40.5790   42.3880 C   0  0  0  0  0  0  0  0  0  0  0  0
   38.8240   36.2210   44.0720 O   0  0  0  0  0  0  0  0  0  0  0  0
   37.6220   40.0030   46.3970 C   0  0  0  0  0  0  0  0  0  0  0  0
   38.4660   39.4100   45.2260 N   0  0  0  0  0  0  0  0  0  0  0  0
   39.0660   37.1110   40.6610 C   0  0  0  0  0  0  0  0  0  0  0  0
   38.7450   36.8920   43.0360 C   0  0  0  0  0  0  0  0  0  0  0  0
   36.4720   38.6740   44.5800 O   0  0  0  0  0  0  0  0  0  0  0  0
   37.7230   38.7080   44.2850 C   0  0  0  0  0  0  0  0  0  0  0  0
   38.4850   38.0360   40.6620 C   0  0  0  0  0  0  0  0  0  0  0  0
   39.1120   36.4370   41.8590 N   0  0  0  0  0  0  0  0  0  0  0  0
   38.1820   38.2380   43.1820 C   0  0  0  0  0  0  0  0  0  0  0  0
   38.7000   36.6090   39.5680 O   0  0  0  0  0  0  0  0  0  0  0  0
  1  2  1  0
  1 12  1  0
  5  4  1  0
  6 13  1  0
  6 10  1  0
  6 11  1  0
  7 12  1  0
  7  3  2  0
  9  8  2  0
  9  5  1  0
 10  1  1  0
 11  7  1  0
 12  9  1  0
M  END
$$$$

     RDKit          3D

 20 23  0  0  0  0  0  0  0  0999 V2000
   41.8510   34.9200   38.5840 C   0  0  0  0  0  0  0  0  0  0  0  0
   37.5560   40.5130   43.4070 C   0  0  0  0  0  0  0  0  0  0  0  0
   37.8080   40.6250   44.6750 N   0  0  0  0  0  0  0  0  0  0  0  0
   37.7750   42.8690   44.5550 N   0  0  0  0  0  0  0  0  0  0  0  0
   41.2050   35.8380   37.7490 C   0  0  0  0  0  0  0  0  0  0  0  0
   41.0360   36.4540   40.2280 C   0  0  0  0  0  0  0  0  0  0  0  0
   37.7660   41.5620   42.6590 O   0  0  0  0  0  0  0  0  0  0  0  0
   37.4330   39.1700   42.7560 C   0  0  0  0  0  0  0  0  0  0  0  0
   38.7220   36.9360   41.0850 C   0  0  0  0  0  0  0  0  0  0  0  0
   37.4890   41.8500   46.5860 N   0  0  0  0  0  0  0  0  0  0  0  0
   41.4340   34.4520   37.1680 C   0  0  0  0  0  0  0  0  0  0  0  0
   39.0050   36.1330   43.9310 O   0  0  0  0  0  0  0  0  0  0  0  0
   38.3470   38.2400   42.0000 C   0  0  0  0  0  0  0  0  0  0  0  0
   38.2970   38.1430   43.2990 N   0  0  0  0  0  0  0  0  0  0  0  0
   38.6480   37.3380   44.2730 C   0  0  0  0  0  0  0  0  0  0  0  0
   37.7190   41.8590   45.1640 C   0  0  0  0  0  0  0  0  0  0  0  0
   40.3860   35.8870   38.9250 C   0  0  0  0  0  0  0  0  0  0  0  0
   37.3370   39.0320   41.1810 C   0  0  0  0  0  0  0  0  0  0  0  0
   40.0560   36.5350   41.3760 O   0  0  0  0  0  0  0  0  0  0  0  0
   38.4550   37.8300   45.3810 O   0  0  0  0  0  0  0  0  0  0  0  0
  1 11  1  0
  1 17  1  0
  2  3  1  0
  3 16  2  3
  4 16  1  0
  5 11  1  0
  5  1  1  0
  5 17  1  0
  6 19  1  0
  7  2  2  0
  8 14  1  0
  8  2  1  0
  9 19  1  0
 12 15  2  0
 13  9  1  0
 13  8  1  0
 13 14  1  0
 14 15  1  0
 15 20  1  0
 16 10  1  0
 17  6  1  0
 18 13  1  0
 18  8  1  0
M  END
$$$$

     RDKit          3D

 16 17  0  0  0  0  0  0  0  0999 V2000
   42.2920   32.8800   38.9930 O   0  0  0  0  0  0  0  0  0  0  0  0
   41.0550   36.4250   39.0800 C   0  0  0  0  0  0  0  0  0  0  0  0
   38.4880   36.6130   40.0230 C   0  0  0  0  0  0  0  0  0  0  0  0
   37.2350   38.6840   43.3580 O   0  0  0  0  0  0  0  0  0  0  0  0
   38.1020   38.1200   43.7920 C   0  0  0  0  0  0  0  0  0  0  0  0
   39.4010   35.7660   37.2670 C   0  0  0  0  0  0  0  0  0  0  0  0
   41.1930   35.0590   38.7020 C   0  0  0  0  0  0  0  0  0  0  0  0
   38.8360   37.4230   44.5190 C   0  0  0  0  0  0  0  0  0  0  0  0
   38.7520   37.7060   41.0940 C   0  0  0  0  0  0  0  0  0  0  0  0
   40.2940   34.6420   37.5460 C   0  0  0  0  0  0  0  0  0  0  0  0
   43.3260   34.3440   37.3170 O   0  0  0  0  0  0  0  0  0  0  0  0
   38.8300   37.7390   42.1310 C   0  0  0  0  0  0  0  0  0  0  0  0
   40.4200   34.2210   36.4740 F   0  0  0  0  0  0  0  0  0  0  0  0
   42.4620   34.0830   38.1900 C   0  0  0  0  0  0  0  0  0  0  0  0
   39.9980   38.0550   43.2040 C   0  0  0  0  0  0  0  0  0  0  0  0
   39.5130   36.5070   38.7740 C   0  0  0  0  0  0  0  0  0  0  0  0
  3  9  1  0
  4  5  2  0
  5  8  1  0
  6 10  1  0
  6 16  1  0
  7 14  1  0
  7  2  1  0
 10 13  1  0
 10  7  1  0
 11 14  2  0
 12  9  1  0
 12 15  1  0
 12  5  1  0
 14  1  1  0
 15  8  1  0
 16  2  1  0
 16  3  1  0
M  END
$$$$

     RDKit          3D

 11 11  0  0  0  0  0  0  0  0999 V2000
   39.6470   36.7320   42.6150 C   0  0  0  0  0  0  0  0  0  0  0  0
   37.2690   38.5180   43.8370 O   0  0  0  0  0  0  0  0  0  0  0  0
   38.4510   38.4200   46.0120 O   0  0  0  0  0  0  0  0  0  0  0  0
   39.8720   37.5730   39.8010 O   0  0  0  0  0  0  0  0  0  0  0  0
   39.1720   36.9690   44.0190 C   0  0  0  0  0  0  0  0  0  0  0  0
   39.4790   39.6220   43.9180 C   0  0  0  0  0  0  0  0  0  0  0  0
   39.9030   38.0400   42.0160 N   0  0  0  0  0  0  0  0  0  0  0  0
   40.1460   38.2750   40.7330 C   0  0  0  0  0  0  0  0  0  0  0  0
   40.1320   39.6840   40.3470 N   0  0  0  0  0  0  0  0  0  0  0  0
   40.3000   39.1210   42.8590 C   0  0  0  0  0  0  0  0  0  0  0  0
   38.4720   38.1580   44.5550 P   0  0  0  0  0  0  0  0  0  0  0  0
  1  5  1  0
  2 11  2  0
  4  8  2  0
  5 11  1  0
  6 11  1  0
  7  1  1  0
  7 10  1  0
  8  7  1  0
  9  8  1  0
 10  6  1  0
 11  3  1  0
M  END
$$$$

     RDKit          3D

 19 20  0  0  0  0  0  0  0  0999 V2000
   41.0960   38.4500   40.0900 C   0  0  0  0  0  0  0  0  0  0  0  0
   38.2170   38.7520   42.5990 C   0  0  0  0  0  0  0  0  0  0  0  0
   35.4670   42.3870   45.2510 O   0  0  0  0  0  0  0  0  0  0  0  0
   40.8270   36.6170   38.3820 C   0  0  0  0  0  0  0  0  0  0  0  0
   40.4190   37.8980   41.3970 C   0  0  0  0  0  0  0  0  0  0  0  0
   38.0590   36.2470   42.2200 N   0  0  0  0  0  0  0  0  0  0  0  0
   38.9650   37.5230   41.6370 C   0  0  0  0  0  0  0  0  0  0  0  0
   38.0900   37.8350   43.5480 C   0  0  0  0  0  0  0  0  0  0  0  0
   41.1270   38.0410   38.6880 C   0  0  0  0  0  0  0  0  0  0  0  0
   37.2860   38.1690   44.5930 C   0  0  0  0  0  0  0  0  0  0  0  0
   39.9430   36.1580   39.5490 C   0  0  0  0  0  0  0  0  0  0  0  0
   36.4390   39.9700   46.3410 O   0  0  0  0  0  0  0  0  0  0  0  0
   38.4640   36.3420   43.2710 C   0  0  0  0  0  0  0  0  0  0  0  0
   35.0680   41.1510   44.7980 O   0  0  0  0  0  0  0  0  0  0  0  0
   39.2810   36.0290   43.8890 O   0  0  0  0  0  0  0  0  0  0  0  0
   35.9800   40.1380   45.1070 C   0  0  0  0  0  0  0  0  0  0  0  0
   38.9060   36.9240   40.1550 C   0  0  0  0  0  0  0  0  0  0  0  0
   36.3720   39.2140   44.2330 N   0  0  0  0  0  0  0  0  0  0  0  0
   35.5120   43.0040   46.5700 C   0  0  0  0  0  0  0  0  0  0  0  0
  1  5  1  0
  2  8  1  0
  3 19  1  0
  4  9  1  0
  4 11  1  0
  5  7  1  0
  6 13  1  0
  7  6  1  0
  7  2  1  0
  8 10  1  0
  9  1  1  0
 11 17  1  0
 13  8  1  0
 13 15  2  0
 14 16  1  0
 14  3  1  0
 16 12  2  0
 17  7  1  0
 18 10  1  0
 18 16  1  0
M  END
$$$$

     RDKit          3D

 12 13  0  0  0  0  0  0  0  0999 V2000
   38.8860   37.1920   43.6140 C   0  0  0  0  0  0  0  0  0  0  0  0
   39.2860   37.6750   42.1790 C   0  0  0  0  0  0  0  0  0  0  0  0
   38.1390   39.5220   40.0480 O   0  0  0  0  0  0  0  0  0  0  0  0
   39.9820   37.7760   39.7700 C   0  0  0  0  0  0  0  0  0  0  0  0
   40.2430   37.0250   41.1050 C   0  0  0  0  0  0  0  0  0  0  0  0
   38.4810   38.1490   39.9030 C   0  0  0  0  0  0  0  0  0  0  0  0
   38.0340   37.6140   41.2780 C   0  0  0  0  0  0  0  0  0  0  0  0
   39.8260   37.7750   44.6280 O   0  0  0  0  0  0  0  0  0  0  0  0
   37.4600   37.6070   44.1760 C   0  0  0  0  0  0  0  0  0  0  0  0
   39.6360   39.1310   42.4090 O   0  0  0  0  0  0  0  0  0  0  0  0
   36.8400   38.3690   41.8340 C   0  0  0  0  0  0  0  0  0  0  0  0
   36.9200   38.7210   43.3140 C   0  0  0  0  0  0  0  0  0  0  0  0
  1  9  1  0
  1  8  1  0
  2 10  1  0
  2  1  1  0
  4  6  1  0
  4  5  1  0
  5  2  1  0
  6  3  1  0
  6  7  1  0
  7 11  1  0
  7  2  1  0
 11 12  1  0
 12  9  1  0
M  END
$$$$

     RDKit          3D

  9  8  0  0  0  0  0  0  0  0999 V2000
   37.6360   39.0790   41.0500 O   0  0  0  0  0  0  0  0  0  0  0  0
   39.1880   35.8720   43.6010 O   0  0  0  0  0  0  0  0  0  0  0  0
   37.1440   39.3560   43.3090 C   0  0  0  0  0  0  0  0  0  0  0  0
   37.8550   37.1250   42.2480 C   0  0  0  0  0  0  0  0  0  0  0  0
   36.7530   40.7220   42.8560 O   0  0  0  0  0  0  0  0  0  0  0  0
   38.0860   38.6470   42.1980 C   0  0  0  0  0  0  0  0  0  0  0  0
   38.3610   36.7770   43.5710 C   0  0  0  0  0  0  0  0  0  0  0  0
   37.9470   37.5360   44.6720 O   0  0  0  0  0  0  0  0  0  0  0  0
   39.5780   39.1150   42.5220 C   0  0  0  0  0  0  0  0  0  0  0  0
  1  6  1  0
  4  7  1  0
  5  3  1  0
  6  4  1  0
  6  9  1  0
  6  3  1  0
  7  2  2  0
  7  8  1  0
M  END
$$$$

     RDKit          3D

 12 12  0  0  0  0  0  0  0  0999 V2000
   36.6020   39.9620   46.6250 C   0  0  0  0  0  0  0  0  0  0  0  0
   36.9410   38.2510   43.4660 O   0  0  0  0  0  0  0  0  0  0  0  0
   39.7130   39.6900   41.3530 O   0  0  0  0  0  0  0  0  0  0  0  0
   39.4210   37.4520   43.3660 C   0  0  0  0  0  0  0  0  0  0  0  0
   39.8030   38.2020   39.5740 O   0  0  0  0  0  0  0  0  0  0  0  0
   38.1730   38.0820   44.0240 C   0  0  0  0  0  0  0  0  0  0  0  0
   37.6740   38.4550   40.6150 O   0  0  0  0  0  0  0  0  0  0  0  0
   36.1620   38.7990   44.4510 C   0  0  0  0  0  0  0  0  0  0  0  0
   36.9190   39.0740   45.4860 N   0  0  0  0  0  0  0  0  0  0  0  0
   39.2370   38.7400   40.9550 S   0  0  0  0  0  0  0  0  0  0  0  0
   38.1180   38.4830   45.2040 C   0  0  0  0  0  0  0  0  0  0  0  0
   39.4830   37.2460   41.8450 C   0  0  0  0  0  0  0  0  0  0  0  0
  2  6  1  0
  2  8  1  0
  4  6  1  0
  5 10  1  0
  6 11  2  0
  7 10  1  0
  8  9  1  0
  9  1  1  0
 10  3  1  0
 10 12  1  0
 11  9  1  0
 12  4  1  0
M  END
$$$$

     RDKit          3D

 20 22  0  0  0  0  0  0  0  0999 V2000
   38.7770   37.5100   40.7070 C   0  0  0  0  0  0  0  0  0  0  0  0
   39.1860   36.6410   39.7390 C   0  0  0  0  0  0  0  0  0  0  0  0
   38.7470   36.4010   38.4660 N   0  0  0  0  0  0  0  0  0  0  0  0
   35.4930   40.4920   46.4460 C   0  0  0  0  0  0  0  0  0  0  0  0
   38.4130   38.8400   39.9900 C   0  0  0  0  0  0  0  0  0  0  0  0
   37.8980   41.0330   45.2430 C   0  0  0  0  0  0  0  0  0  0  0  0
   38.5150   36.3550   36.9890 C   0  0  0  0  0  0  0  0  0  0  0  0
   39.0980   35.3890   36.4300 O   0  0  0  0  0  0  0  0  0  0  0  0
   36.9360   41.8420   46.5570 S   0  0  0  0  0  0  0  0  0  0  0  0
   40.7850   36.4680   40.1990 S   0  0  0  0  0  0  0  0  0  0  0  0
   38.3110   38.2160   45.2920 C   0  0  0  0  0  0  0  0  0  0  0  0
   34.2190   41.9830   47.7320 O   0  0  0  0  0  0  0  0  0  0  0  0
   37.6480   39.4070   45.6430 C   0  0  0  0  0  0  0  0  0  0  0  0
   37.7590   37.8950   43.9670 O   0  0  0  0  0  0  0  0  0  0  0  0
   38.9330   38.0890   43.2140 C   0  0  0  0  0  0  0  0  0  0  0  0
   39.0290   37.1160   42.0200 C   0  0  0  0  0  0  0  0  0  0  0  0
   36.2290   39.3650   45.4320 C   0  0  0  0  0  0  0  0  0  0  0  0
   34.9930   42.1210   46.6230 C   0  0  0  0  0  0  0  0  0  0  0  0
   40.6550   36.4050   42.1120 S   0  0  0  0  0  0  0  0  0  0  0  0
   37.7190   37.1920   36.3770 O   0  0  0  0  0  0  0  0  0  0  0  0
  1  5  1  0
  1 16  1  0
  2  3  1  0
  2 10  1  0
  2  1  1  0
  4 17  1  0
  4  9  1  0
  4 18  1  0
  6 13  1  0
  7  3  1  0
  8  7  1  0
  9  6  1  0
  9 18  1  0
 10 19  1  0
 13 11  1  0
 14 11  1  0
 15 14  1  0
 16 19  1  0
 16 15  1  0
 17 13  1  0
 18 12  1  0
 20  7  2  0
M  END
$$$$

     RDKit          3D

 11 12  0  0  0  0  0  0  0  0999 V2000
   40.6750   39.0020   42.9290 N   0  0  0  0  0  0  0  0  0  0  0  0
   36.6880   39.5350   40.6320 O   0  0  0  0  0  0  0  0  0  0  0  0
   38.1120   37.7800   44.0830 C   0  0  0  0  0  0  0  0  0  0  0  0
   38.9650   35.5510   43.7470 O   0  0  0  0  0  0  0  0  0  0  0  0
   39.1630   38.3030   43.0420 C   0  0  0  0  0  0  0  0  0  0  0  0
   38.2850   39.4060   41.9730 O   0  0  0  0  0  0  0  0  0  0  0  0
   37.3090   39.0750   43.3310 C   0  0  0  0  0  0  0  0  0  0  0  0
   37.9200   39.1690   44.7270 C   0  0  0  0  0  0  0  0  0  0  0  0
   38.6800   36.9610   42.8910 C   0  0  0  0  0  0  0  0  0  0  0  0
   37.5790   39.2280   46.0360 C   0  0  0  0  0  0  0  0  0  0  0  0
   37.6320   38.2460   41.0790 C   0  0  0  0  0  0  0  0  0  0  0  0
  1  5  1  0
  2 11  1  0
  3  8  1  0
  5  3  1  0
  6  7  1  0
  7  3  1  0
  7  8  1  0
  8 10  1  0
  9  5  1  0
  9  4  1  0
  9  3  1  0
 11  6  1  0
M  END
$$$$

     RDKit          3D

 15 16  0  0  0  0  0  0  0  0999 V2000
   38.2150   39.1150   44.9400 C   0  0  0  0  0  0  0  0  0  0  0  0
   39.4530   36.4560   42.6200 N   0  0  0  0  0  0  0  0  0  0  0  0
   38.7630   37.4250   40.4750 C   0  0  0  0  0  0  0  0  0  0  0  0
   39.3460   36.4790   39.4040 C   0  0  0  0  0  0  0  0  0  0  0  0
   38.9860   38.5820   42.8340 C   0  0  0  0  0  0  0  0  0  0  0  0
   37.9930   40.1230   44.1000 N   0  0  0  0  0  0  0  0  0  0  0  0
   40.5140   35.9850   39.4750 N   0  0  0  0  0  0  0  0  0  0  0  0
   39.0730   36.6850   43.9530 O   0  0  0  0  0  0  0  0  0  0  0  0
   38.7370   37.9890   44.0760 C   0  0  0  0  0  0  0  0  0  0  0  0
   38.6230   36.1670   38.4330 O   0  0  0  0  0  0  0  0  0  0  0  0
   38.9100   39.8870   42.9270 N   0  0  0  0  0  0  0  0  0  0  0  0
   37.8270   39.1570   46.3870 C   0  0  0  0  0  0  0  0  0  0  0  0
   39.3360   37.5440   41.8990 C   0  0  0  0  0  0  0  0  0  0  0  0
   41.0940   35.1550   38.4220 C   0  0  0  0  0  0  0  0  0  0  0  0
   37.3130   41.4250   44.3290 C   0  0  0  0  0  0  0  0  0  0  0  0
  1 12  1  0
  2  8  1  0
  3 13  1  0
  4  7  1  0
  4  3  1  0
  5 11  1  0
  5  9  2  0
  6 15  1  0
  6  1  1  0
  8  9  1  0
  9  1  1  0
 10  4  2  0
 11  6  1  0
 13  2  2  0
 13  5  1  0
 14  7  1  0
M  END
$$$$

     RDKit          3D

 12 13  0  0  0  0  0  0  0  0999 V2000
   37.4760   39.0240   45.2320 C   0  0  0  0  0  0  0  0  0  0  0  0
   39.0230   39.0290   41.2250 C   0  0  0  0  0  0  0  0  0  0  0  0
   39.3300   38.1800   39.9380 O   0  0  0  0  0  0  0  0  0  0  0  0
   40.4420   37.3100   41.7780 C   0  0  0  0  0  0  0  0  0  0  0  0
   36.7370   38.5310   43.1580 N   0  0  0  0  0  0  0  0  0  0  0  0
   36.4020   39.0990   44.3200 N   0  0  0  0  0  0  0  0  0  0  0  0
   38.1120   37.7990   43.4010 C   0  0  0  0  0  0  0  0  0  0  0  0
   38.6770   36.1040   43.6660 C   0  0  0  0  0  0  0  0  0  0  0  0
   37.5730   39.6920   46.6130 C   0  0  0  0  0  0  0  0  0  0  0  0
   39.7870   36.9360   40.3690 C   0  0  0  0  0  0  0  0  0  0  0  0
   38.5270   38.2880   44.6430 N   0  0  0  0  0  0  0  0  0  0  0  0
   39.0870   37.6060   42.2520 C   0  0  0  0  0  0  0  0  0  0  0  0
  1  9  1  0
  3 10  1  0
  3  2  1  0
  4 12  1  0
  5  7  1  0
  5  6  1  0
  6  1  2  0
  7  8  1  0
  7 11  1  0
 10  4  1  0
 11  1  1  0
 12  2  1  0
 12  7  1  0
M  END
$$$$
