
     RDKit          3D

 10 10  0  0  0  0  0  0  0  0999 V2000
   37.9980   38.5480   40.5080 C   0  0  0  0  0  0  0  0  0  0  0  0
   37.9810   40.7410   41.7590 O   0  0  0  0  0  0  0  0  0  0  0  0
   38.4830   36.6560   42.0740 O   0  0  0  0  0  0  0  0  0  0  0  0
   37.8660   39.1110   41.9840 C   0  0  0  0  0  0  0  0  0  0  0  0
   36.8870   39.7680   38.5190 O   0  0  0  0  0  0  0  0  0  0  0  0
   39.6200   38.9570   40.4550 S   0  0  0  0  0  0  0  0  0  0  0  0
   37.5460   39.1490   39.3330 C   0  0  0  0  0  0  0  0  0  0  0  0
   38.8360   40.1130   39.4740 C   0  0  0  0  0  0  0  0  0  0  0  0
   38.5880   37.6500   42.6780 C   0  0  0  0  0  0  0  0  0  0  0  0
   38.4840   37.8640   43.9040 O   0  0  0  0  0  0  0  0  0  0  0  0
  1  4  1  0
  3  9  2  0
  4  2  1  0
  4  9  1  0
  5  7  2  0
  6  1  1  0
  7  8  1  0
  7  1  1  0
  8  6  1  0
  9 10  1  0
M  END
$$$$

     RDKit          3D

 13 15  0  0  0  0  0  0  0  0999 V2000
   39.7940   36.8100   41.2520 O   0  0  0  0  0  0  0  0  0  0  0  0
   39.3510   38.8360   40.3500 C   0  0  0  0  0  0  0  0  0  0  0  0
   37.4650   39.0230   42.5730 N   0  0  0  0  0  0  0  0  0  0  0  0
   36.9230   39.5520   43.7380 C   0  0  0  0  0  0  0  0  0  0  0  0
   40.3640   36.8410   39.8410 C   0  0  0  0  0  0  0  0  0  0  0  0
   37.3930   38.4470   44.7780 N   0  0  0  0  0  0  0  0  0  0  0  0
   39.0700   37.9230   41.4610 N   0  0  0  0  0  0  0  0  0  0  0  0
   36.5380   39.3570   44.9290 C   0  0  0  0  0  0  0  0  0  0  0  0
   39.7170   38.1030   39.2740 C   0  0  0  0  0  0  0  0  0  0  0  0
   38.4210   38.1030   42.5860 C   0  0  0  0  0  0  0  0  0  0  0  0
   38.2620   39.7290   39.9340 C   0  0  0  0  0  0  0  0  0  0  0  0
   36.0350   39.9970   45.9770 N   0  0  0  0  0  0  0  0  0  0  0  0
   38.3370   37.8360   43.9730 N   0  0  0  0  0  0  0  0  0  0  0  0
  1  7  1  0
  2 11  1  0
  2  7  1  0
  3 10  2  0
  4  3  1  0
  4  6  1  0
  4  8  1  0
  5  1  1  0
  6  8  1  0
  7 10  1  0
  8 12  2  0
  9  5  1  0
  9  2  1  0
 10 13  1  0
 13  6  1  0
M  END
$$$$

     RDKit          3D

  6  5  0  0  0  0  0  0  0  0999 V2000
   37.7620   38.7810   42.7180 C   0  0  0  0  0  0  0  0  0  0  0  0
   39.3040   40.4010   41.5300 C   0  0  0  0  0  0  0  0  0  0  0  0
   38.2280   39.3690   42.5910 N   0  0  0  0  0  0  0  0  0  0  0  0
   38.0040   37.0810   42.5200 C   0  0  0  0  0  0  0  0  0  0  0  0
   38.6030   36.0850   43.2730 O   0  0  0  0  0  0  0  0  0  0  0  0
   37.1850   39.7480   43.2330 O   0  0  0  0  0  0  0  0  0  0  0  0
  1  6  2  0
  2  3  1  0
  3  1  1  0
  4  1  1  0
  4  5  1  0
M  END
$$$$

     RDKit          3D

 23 23  0  0  0  0  0  0  0  0999 V2000
   40.6030   39.0430   40.1620 C   0  0  0  0  0  0  0  0  0  0  0  0
   39.4670   36.8510   39.7420 C   0  0  0  0  0  0  0  0  0  0  0  0
   40.9210   39.0870   38.7850 C   0  0  0  0  0  0  0  0  0  0  0  0
   33.4060   42.6590   47.4730 P   0  0  0  0  0  0  0  0  0  0  0  0
   38.4850   36.3200   43.3010 O   0  0  0  0  0  0  0  0  0  0  0  0
   38.6230   37.4020   42.7830 C   0  0  0  0  0  0  0  0  0  0  0  0
   40.4030   37.9730   37.8430 C   0  0  0  0  0  0  0  0  0  0  0  0
   36.5490   39.9520   45.0390 S   0  0  0  0  0  0  0  0  0  0  0  0
   39.7740   37.6570   42.0080 N   0  0  0  0  0  0  0  0  0  0  0  0
   34.3290   41.9650   46.2830 C   0  0  0  0  0  0  0  0  0  0  0  0
   34.7950   39.7410   45.2280 C   0  0  0  0  0  0  0  0  0  0  0  0
   32.6560   43.7520   46.7720 O   0  0  0  0  0  0  0  0  0  0  0  0
   38.8310   36.3500   37.4950 F   0  0  0  0  0  0  0  0  0  0  0  0
   40.7100   40.2640   41.0000 C   0  0  0  0  0  0  0  0  0  0  0  0
   36.8300   38.5850   44.0340 C   0  0  0  0  0  0  0  0  0  0  0  0
   33.9090   40.4990   46.0720 C   0  0  0  0  0  0  0  0  0  0  0  0
   39.5650   37.0520   38.3270 C   0  0  0  0  0  0  0  0  0  0  0  0
   39.9790   37.8390   40.6120 C   0  0  0  0  0  0  0  0  0  0  0  0
   34.2690   43.3220   48.5110 O   0  0  0  0  0  0  0  0  0  0  0  0
   42.0880   40.0560   38.1600 Cl  0  0  0  0  0  0  0  0  0  0  0  0
   40.9160   37.8530   42.7940 O   0  0  0  0  0  0  0  0  0  0  0  0
   38.0910   39.4150   42.3290 O   0  0  0  0  0  0  0  0  0  0  0  0
   37.8500   38.4980   43.0620 N   0  0  0  0  0  0  0  0  0  0  0  0
  1 18  1  0
  1 14  1  0
  2 18  2  0
  3  1  2  0
  4 19  1  0
  6 23  1  0
  6  5  2  0
  7 17  2  0
  7  3  1  0
  8 11  1  0
  9  6  1  0
  9 21  1  0
 10  4  1  0
 11 16  1  0
 12  4  1  0
 13 17  1  0
 15  8  1  0
 16 10  1  0
 17  2  1  0
 18  9  1  0
 20  3  1  0
 22 23  1  0
 23 15  1  0
M  END
$$$$

     RDKit          3D

 22 23  0  0  0  0  0  0  0  0999 V2000
   34.2250   41.8790   45.8910 C   0  0  0  0  0  0  0  0  0  0  0  0
   35.8730   43.0660   47.0900 C   0  0  0  0  0  0  0  0  0  0  0  0
   36.0230   43.0080   44.6200 C   0  0  0  0  0  0  0  0  0  0  0  0
   38.6380   37.8970   41.2400 C   0  0  0  0  0  0  0  0  0  0  0  0
   35.2900   39.4710   44.7570 O   0  0  0  0  0  0  0  0  0  0  0  0
   36.3900   39.8960   45.1200 C   0  0  0  0  0  0  0  0  0  0  0  0
   38.3100   36.0070   43.4850 O   0  0  0  0  0  0  0  0  0  0  0  0
   37.4690   39.0780   44.7340 N   0  0  0  0  0  0  0  0  0  0  0  0
   39.3560   40.2260   38.9130 C   0  0  0  0  0  0  0  0  0  0  0  0
   37.2850   38.9360   42.0070 S   0  0  0  0  0  0  0  0  0  0  0  0
   41.3000   41.6520   39.0570 C   0  0  0  0  0  0  0  0  0  0  0  0
   36.4880   40.9380   45.8640 N   0  0  0  0  0  0  0  0  0  0  0  0
   38.1730   37.0020   43.1180 C   0  0  0  0  0  0  0  0  0  0  0  0
   37.4890   38.2350   43.5370 C   0  0  0  0  0  0  0  0  0  0  0  0
   35.6360   42.1780   45.8580 C   0  0  0  0  0  0  0  0  0  0  0  0
   38.7080   36.8910   41.9060 N   0  0  0  0  0  0  0  0  0  0  0  0
   41.2970   39.5730   40.3100 C   0  0  0  0  0  0  0  0  0  0  0  0
   40.1310   36.9340   39.4970 C   0  0  0  0  0  0  0  0  0  0  0  0
   41.7970   41.0180   40.3090 C   0  0  0  0  0  0  0  0  0  0  0  0
   39.3570   38.0380   40.0300 C   0  0  0  0  0  0  0  0  0  0  0  0
   39.9060   39.3620   39.7940 C   0  0  0  0  0  0  0  0  0  0  0  0
   40.0070   41.4390   38.9790 C   0  0  0  0  0  0  0  0  0  0  0  0
  3 15  1  0
  4 20  1  0
  4 16  1  0
  4 10  1  0
  5  6  2  0
  6 12  1  0
  8  6  1  0
  9 22  1  0
  9 21  1  0
 10 14  1  0
 11 19  1  0
 13  7  2  0
 13 14  1  0
 14  8  1  0
 15 12  1  0
 15  1  1  0
 15  2  1  0
 16 13  1  0
 19 17  1  0
 20 18  1  0
 21 20  1  0
 21 17  1  0
 22 11  1  0
M  END
$$$$

     RDKit          3D

  8  7  0  0  0  0  0  0  0  0999 V2000
   39.1120   37.3050   41.5590 P   0  0  0  0  0  0  0  0  0  0  0  0
   39.8090   36.7030   40.4390 O   0  0  0  0  0  0  0  0  0  0  0  0
   36.7710   39.1400   39.6450 O   0  0  0  0  0  0  0  0  0  0  0  0
   37.7830   38.1370   40.9640 O   0  0  0  0  0  0  0  0  0  0  0  0
   38.5840   36.2960   42.6930 O   0  0  0  0  0  0  0  0  0  0  0  0
   38.7690   40.1540   40.7940 O   0  0  0  0  0  0  0  0  0  0  0  0
   39.9880   38.3290   42.3310 O   0  0  0  0  0  0  0  0  0  0  0  0
   37.6190   39.2150   40.4960 C   0  0  0  0  0  0  0  0  0  0  0  0
  1  7  1  0
  1  5  1  0
  2  1  2  0
  3  8  2  0
  4  1  1  0
  8  6  1  0
  8  4  1  0
M  END
$$$$

     RDKit          3D

 16 16  0  0  0  0  0  0  0  0999 V2000
   36.7140   39.3870   44.8640 C   0  0  0  0  0  0  0  0  0  0  0  0
   39.5020   37.8320   40.7950 C   0  0  0  0  0  0  0  0  0  0  0  0
   37.0860   41.7570   45.1890 N   0  0  0  0  0  0  0  0  0  0  0  0
   37.5790   41.0080   43.0720 C   0  0  0  0  0  0  0  0  0  0  0  0
   38.5410   36.2340   43.1020 O   0  0  0  0  0  0  0  0  0  0  0  0
   37.3210   38.0510   43.2440 N   0  0  0  0  0  0  0  0  0  0  0  0
   38.4810   38.1160   41.6520 N   0  0  0  0  0  0  0  0  0  0  0  0
   36.6770   40.5410   45.5780 C   0  0  0  0  0  0  0  0  0  0  0  0
   37.8260   41.3240   41.6720 C   0  0  0  0  0  0  0  0  0  0  0  0
   37.2560   39.5070   43.5440 C   0  0  0  0  0  0  0  0  0  0  0  0
   37.9030   39.1100   41.1270 O   0  0  0  0  0  0  0  0  0  0  0  0
   38.2280   37.3270   42.6930 C   0  0  0  0  0  0  0  0  0  0  0  0
   39.9470   38.5700   38.1480 O   0  0  0  0  0  0  0  0  0  0  0  0
   37.5980   41.9870   43.9810 C   0  0  0  0  0  0  0  0  0  0  0  0
   39.4830   36.8910   39.6250 C   0  0  0  0  0  0  0  0  0  0  0  0
   38.8780   37.7610   38.5080 C   0  0  0  0  0  0  0  0  0  0  0  0
  1  8  1  0
  2  7  1  0
  3  8  2  0
  4 10  1  0
  4 14  2  0
  6 10  1  0
  7 12  1  0
  9  4  1  0
 10  1  2  0
 11  7  1  0
 12  5  2  0
 12  6  1  0
 13 16  1  0
 14  3  1  0
 15  2  1  0
 16 15  1  0
M  END
$$$$

     RDKit          3D

 12 15  0  0  0  0  0  0  0  0999 V2000
   39.6710   39.7220   39.2390 C   0  0  0  0  0  0  0  0  0  0  0  0
   40.6460   35.6610   36.9900 O   0  0  0  0  0  0  0  0  0  0  0  0
   39.1220   38.6160   41.5400 C   0  0  0  0  0  0  0  0  0  0  0  0
   38.2980   38.1670   38.9290 O   0  0  0  0  0  0  0  0  0  0  0  0
   39.5530   36.1120   37.8230 C   0  0  0  0  0  0  0  0  0  0  0  0
   40.5530   39.8890   40.6180 C   0  0  0  0  0  0  0  0  0  0  0  0
   40.0600   40.8670   38.4570 C   0  0  0  0  0  0  0  0  0  0  0  0
   40.0790   41.2680   39.9000 C   0  0  0  0  0  0  0  0  0  0  0  0
   39.6400   38.2260   39.2150 C   0  0  0  0  0  0  0  0  0  0  0  0
   39.8380   38.3840   41.3140 C   0  0  0  0  0  0  0  0  0  0  0  0
   40.0960   37.1340   40.3830 C   0  0  0  0  0  0  0  0  0  0  0  0
   40.3340   37.2160   38.7600 C   0  0  0  0  0  0  0  0  0  0  0  0
  1  7  1  0
  1  8  1  0
  1  6  1  0
  2  5  1  0
  4  9  1  0
  5 12  1  0
  6 10  1  0
  7  8  1  0
  8  6  1  0
  9  1  1  0
  9 11  1  0
 10  3  1  0
 11 10  1  0
 12  9  1  0
 12 11  1  0
M  END
$$$$

     RDKit          3D

  9  9  0  0  0  0  0  0  0  0999 V2000
   39.3050   36.9640   41.2910 O   0  0  0  0  0  0  0  0  0  0  0  0
   37.6960   38.3840   42.1080 C   0  0  0  0  0  0  0  0  0  0  0  0
   37.0820   38.4900   43.5890 C   0  0  0  0  0  0  0  0  0  0  0  0
   39.2300   37.8680   40.4510 C   0  0  0  0  0  0  0  0  0  0  0  0
   38.2780   40.2090   40.6230 O   0  0  0  0  0  0  0  0  0  0  0  0
   38.3620   39.0750   41.0000 C   0  0  0  0  0  0  0  0  0  0  0  0
   37.6350   38.7330   44.9000 O   0  0  0  0  0  0  0  0  0  0  0  0
   40.1560   38.0300   39.4630 C   0  0  0  0  0  0  0  0  0  0  0  0
   38.4010   37.3610   42.2570 O   0  0  0  0  0  0  0  0  0  0  0  0
  1  9  1  0
  2  9  1  0
  2  3  1  0
  3  7  1  0
  4  6  1  0
  4  1  1  0
  5  6  2  0
  6  2  1  0
  8  4  2  0
M  END
$$$$

     RDKit          3D

 11 10  0  0  0  0  0  0  0  0999 V2000
   38.3440   38.0610   41.9590 N   0  0  0  0  0  0  0  0  0  0  0  0
   38.6840   37.5640   43.2620 C   0  0  0  0  0  0  0  0  0  0  0  0
   37.5450   38.9470   38.4270 O   0  0  0  0  0  0  0  0  0  0  0  0
   39.4760   37.8580   38.4240 O   0  0  0  0  0  0  0  0  0  0  0  0
   39.5190   38.4410   41.1970 C   0  0  0  0  0  0  0  0  0  0  0  0
   39.1380   39.3880   40.0960 C   0  0  0  0  0  0  0  0  0  0  0  0
   37.7070   38.2740   44.2400 C   0  0  0  0  0  0  0  0  0  0  0  0
   37.2710   37.4390   41.2610 C   0  0  0  0  0  0  0  0  0  0  0  0
   36.5660   38.6880   43.5620 O   0  0  0  0  0  0  0  0  0  0  0  0
   38.5480   38.5840   38.9190 C   0  0  0  0  0  0  0  0  0  0  0  0
   38.4930   36.1820   43.2430 O   0  0  0  0  0  0  0  0  0  0  0  0
  1  2  1  0
  2 11  1  0
  2  7  1  0
  3 10  1  0
  4 10  2  0
  5  1  1  0
  6  5  1  0
  8  1  1  0
  9  7  1  0
 10  6  1  0
M  END
$$$$

     RDKit          3D

 12 12  0  0  0  0  0  0  0  0999 V2000
   38.6720   40.1750   40.1630 O   0  0  0  0  0  0  0  0  0  0  0  0
   39.6270   41.3420   40.6390 C   0  0  0  0  0  0  0  0  0  0  0  0
   39.7280   36.6540   40.7870 O   0  0  0  0  0  0  0  0  0  0  0  0
   37.4050   38.9420   44.6700 C   0  0  0  0  0  0  0  0  0  0  0  0
   36.6690   39.2940   43.4290 C   0  0  0  0  0  0  0  0  0  0  0  0
   38.1630   37.7960   44.3740 O   0  0  0  0  0  0  0  0  0  0  0  0
   39.3590   37.9390   41.2210 C   0  0  0  0  0  0  0  0  0  0  0  0
   38.3230   37.0820   43.2430 C   0  0  0  0  0  0  0  0  0  0  0  0
   38.0230   37.9050   41.9200 C   0  0  0  0  0  0  0  0  0  0  0  0
   37.3660   39.1070   42.2380 O   0  0  0  0  0  0  0  0  0  0  0  0
   39.3200   38.9360   40.0810 C   0  0  0  0  0  0  0  0  0  0  0  0
   41.0340   40.7270   40.6440 C   0  0  0  0  0  0  0  0  0  0  0  0
  1  2  1  0
  2 12  1  0
  5  4  1  0
  6  4  1  0
  7  3  1  0
  8  6  1  0
  9  7  1  0
  9 10  1  0
  9  8  1  0
 10  5  1  0
 11  1  1  0
 11  7  1  0
M  END
$$$$

     RDKit          3D

 12 13  0  0  0  0  0  0  0  0999 V2000
   40.4740   38.3820   39.9260 C   0  0  0  0  0  0  0  0  0  0  0  0
   39.4640   39.2880   42.1350 C   0  0  0  0  0  0  0  0  0  0  0  0
   41.4330   34.0740   38.8560 N   0  0  0  0  0  0  0  0  0  0  0  0
   41.3540   37.5300   39.1120 C   0  0  0  0  0  0  0  0  0  0  0  0
   41.2150   36.2280   38.9490 C   0  0  0  0  0  0  0  0  0  0  0  0
   39.2970   38.1630   41.7140 N   0  0  0  0  0  0  0  0  0  0  0  0
   40.8090   34.5760   37.7820 C   0  0  0  0  0  0  0  0  0  0  0  0
   41.6770   35.1870   39.5940 N   0  0  0  0  0  0  0  0  0  0  0  0
   40.6570   35.8630   37.7750 N   0  0  0  0  0  0  0  0  0  0  0  0
   40.3030   37.8540   40.9490 N   0  0  0  0  0  0  0  0  0  0  0  0
   40.2650   39.8890   39.7590 C   0  0  0  0  0  0  0  0  0  0  0  0
   39.3850   40.6030   41.1550 S   0  0  0  0  0  0  0  0  0  0  0  0
  1  4  1  0
  1 10  1  0
  3  8  1  0
  5  4  1  0
  5  8  2  0
  6  2  1  0
  7  3  1  0
  9  7  2  0
  9  5  1  0
 10  6  1  0
 11  1  1  0
 11 12  1  0
 12  2  1  0
M  END
$$$$

     RDKit          3D

 19 21  0  0  0  0  0  0  0  0999 V2000
   36.5720   41.4420   46.2820 F   0  0  0  0  0  0  0  0  0  0  0  0
   38.3350   37.5630   42.1010 C   0  0  0  0  0  0  0  0  0  0  0  0
   37.2690   38.3700   41.9940 O   0  0  0  0  0  0  0  0  0  0  0  0
   38.8650   39.6200   39.7680 F   0  0  0  0  0  0  0  0  0  0  0  0
   40.0220   36.6340   38.3990 C   0  0  0  0  0  0  0  0  0  0  0  0
   38.7990   37.1820   40.5410 C   0  0  0  0  0  0  0  0  0  0  0  0
   39.4880   36.0110   40.5830 C   0  0  0  0  0  0  0  0  0  0  0  0
   38.7350   38.1830   39.7300 C   0  0  0  0  0  0  0  0  0  0  0  0
   39.4830   37.5490   43.1430 N   0  0  0  0  0  0  0  0  0  0  0  0
   36.9280   38.8170   43.2030 C   0  0  0  0  0  0  0  0  0  0  0  0
   37.1930   38.3760   44.5090 C   0  0  0  0  0  0  0  0  0  0  0  0
   36.9350   41.1530   43.9430 C   0  0  0  0  0  0  0  0  0  0  0  0
   38.6210   36.4980   43.0630 O   0  0  0  0  0  0  0  0  0  0  0  0
   36.7050   40.6860   45.3430 C   0  0  0  0  0  0  0  0  0  0  0  0
   40.2610   35.8870   39.3550 N   0  0  0  0  0  0  0  0  0  0  0  0
   39.3080   37.9120   38.6540 C   0  0  0  0  0  0  0  0  0  0  0  0
   36.5650   39.2490   45.5780 C   0  0  0  0  0  0  0  0  0  0  0  0
   40.1390   36.1860   37.1190 N   0  0  0  0  0  0  0  0  0  0  0  0
   37.0650   40.1690   42.9500 C   0  0  0  0  0  0  0  0  0  0  0  0
  2  3  1  0
  2 13  1  0
  2  9  1  0
  5 16  2  0
  5 15  1  0
  6  7  1  0
  6  2  1  0
  8  4  1  0
  8  6  2  0
 10  3  1  0
 10 11  1  0
 11 17  1  0
 12 14  2  0
 13  9  1  0
 14 17  1  0
 14  1  1  0
 15  7  2  0
 16  8  1  0
 18  5  1  0
 19 10  1  0
 19 12  1  0
M  END
$$$$

     RDKit          3D

 10  9  0  0  0  0  0  0  0  0999 V2000
   37.9530   38.0970   44.0130 O   0  0  0  0  0  0  0  0  0  0  0  0
   37.4470   39.6240   39.6970 C   0  0  0  0  0  0  0  0  0  0  0  0
   37.4660   39.1010   40.9680 C   0  0  0  0  0  0  0  0  0  0  0  0
   37.8960   38.0440   38.5740 S   0  0  0  0  0  0  0  0  0  0  0  0
   39.2740   40.5790   41.5760 O   0  0  0  0  0  0  0  0  0  0  0  0
   37.4990   37.8660   41.5390 O   0  0  0  0  0  0  0  0  0  0  0  0
   38.4600   37.5640   42.7750 P   0  0  0  0  0  0  0  0  0  0  0  0
   39.8670   37.8530   42.7280 O   0  0  0  0  0  0  0  0  0  0  0  0
   38.2270   36.0700   43.0300 O   0  0  0  0  0  0  0  0  0  0  0  0
   37.8300   40.3950   42.2720 S   0  0  0  0  0  0  0  0  0  0  0  0
  3  2  1  0
  3  6  1  0
  3 10  1  0
  4  2  1  0
  5 10  2  0
  6  7  1  0
  7  9  1  0
  7  1  1  0
  8  7  2  0
M  END
$$$$

     RDKit          3D

 22 27  0  0  0  0  0  0  0  0999 V2000
   36.0260   38.4610   43.9660 C   0  0  0  0  0  0  0  0  0  0  0  0
   38.9410   39.2380   41.2160 C   0  0  0  0  0  0  0  0  0  0  0  0
   38.2810   36.3710   43.2270 O   0  0  0  0  0  0  0  0  0  0  0  0
   39.5020   38.4810   40.1800 C   0  0  0  0  0  0  0  0  0  0  0  0
   38.5570   39.7140   44.2800 C   0  0  0  0  0  0  0  0  0  0  0  0
   38.4830   40.9310   44.9500 C   0  0  0  0  0  0  0  0  0  0  0  0
   40.0480   38.4260   37.8560 C   0  0  0  0  0  0  0  0  0  0  0  0
   38.6620   40.5980   41.2000 C   0  0  0  0  0  0  0  0  0  0  0  0
   38.5570   41.2560   42.5130 O   0  0  0  0  0  0  0  0  0  0  0  0
   36.4300   39.0940   45.0290 C   0  0  0  0  0  0  0  0  0  0  0  0
   40.6430   37.0750   37.8830 C   0  0  0  0  0  0  0  0  0  0  0  0
   39.7750   39.1280   38.8290 N   0  0  0  0  0  0  0  0  0  0  0  0
   39.4800   36.6000   41.3860 N   0  0  0  0  0  0  0  0  0  0  0  0
   39.8600   37.1540   40.2420 C   0  0  0  0  0  0  0  0  0  0  0  0
   41.1130   34.9300   39.1610 Cl  0  0  0  0  0  0  0  0  0  0  0  0
   37.1670   40.3430   45.0940 C   0  0  0  0  0  0  0  0  0  0  0  0
   38.2230   41.1770   40.3500 O   0  0  0  0  0  0  0  0  0  0  0  0
   38.6830   37.1050   42.3480 C   0  0  0  0  0  0  0  0  0  0  0  0
   40.4760   36.4930   39.1210 C   0  0  0  0  0  0  0  0  0  0  0  0
   36.6820   38.2620   42.6780 C   0  0  0  0  0  0  0  0  0  0  0  0
   37.9790   38.6960   42.0500 C   0  0  0  0  0  0  0  0  0  0  0  0
   37.9520   40.0760   42.9450 C   0  0  0  0  0  0  0  0  0  0  0  0
  1 10  1  0
  2  4  1  0
  2 21  1  0
  4 14  1  0
  5  6  1  0
  5 16  1  0
  7 11  2  0
  7 12  1  0
  8 17  1  0
  8  2  1  0
  8  9  1  0
  8 22  1  0
 10 16  1  0
 11 19  1  0
 12  4  2  0
 13 18  1  0
 14 13  1  0
 16  6  1  0
 18  3  2  0
 19 15  1  0
 19 14  2  0
 20  1  2  0
 21 18  1  0
 21 20  1  0
 21 22  1  0
 22  9  1  0
 22  5  1  0
M  END
$$$$

     RDKit          3D

 21 21  0  0  0  0  0  0  0  0999 V2000
   35.2340   40.6440   46.3250 N   0  0  0  0  0  0  0  0  0  0  0  0
   41.5320   38.8620   38.7240 C   0  0  0  0  0  0  0  0  0  0  0  0
   38.5740   37.3920   43.1410 C   0  0  0  0  0  0  0  0  0  0  0  0
   38.9810   36.8720   44.1740 O   0  0  0  0  0  0  0  0  0  0  0  0
   32.8670   40.8110   47.0140 C   0  0  0  0  0  0  0  0  0  0  0  0
   37.1920   39.8600   45.1300 C   0  0  0  0  0  0  0  0  0  0  0  0
   39.4630   40.2460   37.6300 C   0  0  0  0  0  0  0  0  0  0  0  0
   39.7070   38.0300   40.1840 N   0  0  0  0  0  0  0  0  0  0  0  0
   35.8780   40.0200   45.5210 C   0  0  0  0  0  0  0  0  0  0  0  0
   37.3790   38.3460   43.1130 C   0  0  0  0  0  0  0  0  0  0  0  0
   40.4930   36.0850   40.2990 O   0  0  0  0  0  0  0  0  0  0  0  0
   39.7940   37.0230   40.7270 C   0  0  0  0  0  0  0  0  0  0  0  0
   40.6990   40.7470   37.4640 C   0  0  0  0  0  0  0  0  0  0  0  0
   35.0730   39.0630   44.6720 O   0  0  0  0  0  0  0  0  0  0  0  0
   37.6830   39.5220   43.9960 C   0  0  0  0  0  0  0  0  0  0  0  0
   41.7300   40.0380   37.9890 C   0  0  0  0  0  0  0  0  0  0  0  0
   33.8350   41.1090   45.9440 C   0  0  0  0  0  0  0  0  0  0  0  0
   39.0770   37.1150   41.8550 N   0  0  0  0  0  0  0  0  0  0  0  0
   37.5000   38.4850   38.2880 Cl  0  0  0  0  0  0  0  0  0  0  0  0
   40.2080   38.4570   39.0280 C   0  0  0  0  0  0  0  0  0  0  0  0
   39.1370   38.8840   38.3770 C   0  0  0  0  0  0  0  0  0  0  0  0
  2 20  1  0
  3  4  2  0
  6  9  1  0
  7 21  1  0
  8 12  1  0
  9  1  1  0
 10  3  1  0
 10 15  1  0
 11 12  2  0
 12 18  1  0
 13  7  2  0
 13 16  1  0
 14  9  2  0
 15  6  1  0
 16  2  2  0
 17  1  1  0
 17  5  1  0
 18  3  1  0
 19 21  1  0
 20  8  1  0
 21 20  2  0
M  END
$$$$

     RDKit          3D

  9  9  0  0  0  0  0  0  0  0999 V2000
   40.9640   38.0680   40.8080 N   0  0  0  0  0  0  0  0  0  0  0  0
   39.3230   39.5650   39.3480 S   0  0  0  0  0  0  0  0  0  0  0  0
   37.3880   38.6420   40.7860 C   0  0  0  0  0  0  0  0  0  0  0  0
   38.6990   37.3270   42.6940 C   0  0  0  0  0  0  0  0  0  0  0  0
   38.3470   36.0430   42.9890 O   0  0  0  0  0  0  0  0  0  0  0  0
   39.2600   37.7990   43.6910 O   0  0  0  0  0  0  0  0  0  0  0  0
   39.6460   38.6770   40.7490 C   0  0  0  0  0  0  0  0  0  0  0  0
   38.5040   38.1690   41.4340 C   0  0  0  0  0  0  0  0  0  0  0  0
   37.3930   39.4300   39.8320 O   0  0  0  0  0  0  0  0  0  0  0  0
  2  9  1  0
  2  7  1  0
  3  8  1  0
  4  5  2  0
  4  6  1  0
  7  1  1  0
  7  8  2  0
  8  4  1  0
  9  3  1  0
M  END
$$$$

     RDKit          3D

 25 27  0  0  0  0  0  0  0  0999 V2000
   34.5440   39.3370   45.0970 C   0  0  0  0  0  0  0  0  0  0  0  0
   36.8190   39.4060   44.4130 C   0  0  0  0  0  0  0  0  0  0  0  0
   38.8750   38.5300   38.4830 C   0  0  0  0  0  0  0  0  0  0  0  0
   39.6870   36.6620   40.9820 O   0  0  0  0  0  0  0  0  0  0  0  0
   39.8220   37.9940   40.8420 S   0  0  0  0  0  0  0  0  0  0  0  0
   37.4610   38.2950   44.7960 N   0  0  0  0  0  0  0  0  0  0  0  0
   31.4080   40.5120   47.4840 C   0  0  0  0  0  0  0  0  0  0  0  0
   37.1770   39.8310   43.1880 N   0  0  0  0  0  0  0  0  0  0  0  0
   34.7800   41.7250   46.4240 C   0  0  0  0  0  0  0  0  0  0  0  0
   38.3870   38.8070   41.3650 C   0  0  0  0  0  0  0  0  0  0  0  0
   40.4540   40.0420   39.2470 C   0  0  0  0  0  0  0  0  0  0  0  0
   37.3250   38.7460   40.4280 C   0  0  0  0  0  0  0  0  0  0  0  0
   35.7850   39.9950   45.0770 C   0  0  0  0  0  0  0  0  0  0  0  0
   37.9600   38.7570   42.7440 C   0  0  0  0  0  0  0  0  0  0  0  0
   38.1310   37.8650   43.7390 N   0  0  0  0  0  0  0  0  0  0  0  0
   40.0910   38.5900   39.3060 C   0  0  0  0  0  0  0  0  0  0  0  0
   37.6350   39.1060   39.0860 C   0  0  0  0  0  0  0  0  0  0  0  0
   32.5130   41.5010   47.3110 O   0  0  0  0  0  0  0  0  0  0  0  0
   38.3580   37.1950   38.1180 O   0  0  0  0  0  0  0  0  0  0  0  0
   40.9330   38.6780   41.6400 O   0  0  0  0  0  0  0  0  0  0  0  0
   33.5880   41.0720   46.4680 C   0  0  0  0  0  0  0  0  0  0  0  0
   36.9330   39.7440   38.3740 O   0  0  0  0  0  0  0  0  0  0  0  0
   35.8360   41.1860   45.7260 C   0  0  0  0  0  0  0  0  0  0  0  0
   41.1520   37.7190   38.5820 C   0  0  0  0  0  0  0  0  0  0  0  0
   33.4560   39.9200   45.7940 C   0  0  0  0  0  0  0  0  0  0  0  0
  1 25  1  0
  2  6  2  0
  2 13  1  0
  3 19  1  0
  3 17  1  0
  3 16  1  0
  5  4  2  0
  5 10  1  0
  5 20  2  0
  8  2  1  0
  9 21  1  0
 10 14  1  0
 11 16  1  0
 12 10  1  0
 13  1  2  0
 13 23  1  0
 14  8  2  0
 14 15  1  0
 15  6  1  0
 16  5  1  0
 17 12  1  0
 18  7  1  0
 21 18  1  0
 22 17  2  0
 23  9  2  0
 24 16  1  0
 25 21  2  0
M  END
$$$$

     RDKit          3D

 16 18  0  0  0  0  0  0  0  0999 V2000
   37.7920   37.4550   39.8030 C   0  0  0  0  0  0  0  0  0  0  0  0
   38.1040   36.5160   44.2560 O   0  0  0  0  0  0  0  0  0  0  0  0
   39.2200   37.1570   40.4220 C   0  0  0  0  0  0  0  0  0  0  0  0
   39.3400   41.8460   39.0690 C   0  0  0  0  0  0  0  0  0  0  0  0
   37.3850   39.6990   44.5820 C   0  0  0  0  0  0  0  0  0  0  0  0
   38.9200   39.8690   41.6500 C   0  0  0  0  0  0  0  0  0  0  0  0
   37.4120   38.4590   43.1170 C   0  0  0  0  0  0  0  0  0  0  0  0
   40.4280   38.0770   40.1990 C   0  0  0  0  0  0  0  0  0  0  0  0
   37.1490   37.8900   44.3490 C   0  0  0  0  0  0  0  0  0  0  0  0
   39.3190   39.4900   40.0650 C   0  0  0  0  0  0  0  0  0  0  0  0
   39.9300   38.8390   43.1330 F   0  0  0  0  0  0  0  0  0  0  0  0
   39.5720   41.5860   40.4320 S   0  0  0  0  0  0  0  0  0  0  0  0
   38.5970   38.7920   42.5010 C   0  0  0  0  0  0  0  0  0  0  0  0
   38.7110   37.0710   41.7400 C   0  0  0  0  0  0  0  0  0  0  0  0
   38.8960   40.8390   38.0060 C   0  0  0  0  0  0  0  0  0  0  0  0
   38.4650   39.5710   38.8830 C   0  0  0  0  0  0  0  0  0  0  0  0
  2  9  1  0
  3  1  1  0
  3 14  1  0
  4 12  1  0
  6 13  1  0
  7  9  1  0
  8  3  1  0
  9  5  1  0
 10  8  1  0
 10 12  1  0
 10  6  1  0
 12  6  1  0
 13  7  1  0
 13 11  1  0
 14 13  1  0
 15 16  1  0
 15  4  1  0
 16 10  1  0
M  END
$$$$

     RDKit          3D

 21 23  0  0  0  0  0  0  0  0999 V2000
   38.0390   39.7400   41.5260 C   0  0  0  0  0  0  0  0  0  0  0  0
   40.9550   35.8930   38.7310 S   0  0  0  0  0  0  0  0  0  0  0  0
   38.9260   39.0820   40.7980 C   0  0  0  0  0  0  0  0  0  0  0  0
   36.7310   41.5330   44.6350 C   0  0  0  0  0  0  0  0  0  0  0  0
   34.7530   41.2670   46.1640 F   0  0  0  0  0  0  0  0  0  0  0  0
   37.1790   38.8900   44.9570 C   0  0  0  0  0  0  0  0  0  0  0  0
   42.0600   36.3680   38.0030 O   0  0  0  0  0  0  0  0  0  0  0  0
   35.9130   40.9420   45.6620 C   0  0  0  0  0  0  0  0  0  0  0  0
   41.5460   34.8650   39.6200 O   0  0  0  0  0  0  0  0  0  0  0  0
   38.0900   39.0740   42.7120 N   0  0  0  0  0  0  0  0  0  0  0  0
   39.8540   38.2760   38.9550 C   0  0  0  0  0  0  0  0  0  0  0  0
   36.4920   40.6950   43.3340 C   0  0  0  0  0  0  0  0  0  0  0  0
   40.1560   37.0740   39.5050 C   0  0  0  0  0  0  0  0  0  0  0  0
   39.9460   35.0820   37.6360 C   0  0  0  0  0  0  0  0  0  0  0  0
   39.5890   39.3990   39.5770 C   0  0  0  0  0  0  0  0  0  0  0  0
   39.9860   36.9510   40.8450 N   0  0  0  0  0  0  0  0  0  0  0  0
   39.0090   37.0130   43.5450 O   0  0  0  0  0  0  0  0  0  0  0  0
   39.5520   38.0200   41.4070 C   0  0  0  0  0  0  0  0  0  0  0  0
   36.1040   39.4510   45.8740 C   0  0  0  0  0  0  0  0  0  0  0  0
   36.9980   39.3020   43.5060 C   0  0  0  0  0  0  0  0  0  0  0  0
   38.8890   38.0220   42.7660 C   0  0  0  0  0  0  0  0  0  0  0  0
  1 10  1  0
  2  9  2  0
  3  1  2  0
  4  8  1  0
  6 19  1  0
  7  2  2  0
  8 19  1  0
  8  5  1  0
 10 21  1  0
 11 13  1  0
 11 15  1  0
 12 20  1  0
 12  4  1  0
 13  2  1  0
 13 16  1  0
 14  2  1  0
 15  3  1  0
 16 18  1  0
 18  3  1  0
 18 21  1  0
 20 10  1  0
 20  6  1  0
 21 17  2  0
M  END
$$$$
