
     RDKit          3D

 24 24  0  0  0  0  0  0  0  0999 V2000
   59.8740   44.5170   29.6100 N   0  0  0  0  0  0  0  0  0  0  0  0
   60.4050   44.8700   28.2970 C   0  0  0  0  0  0  0  0  0  0  0  0
   68.3720   43.7230   36.4800 O   0  0  0  0  0  0  0  0  0  0  0  0
   61.0770   44.9740   32.4740 C   0  0  0  0  0  0  0  0  0  0  0  0
   70.1400   39.9070   35.9230 C   0  0  0  0  0  0  0  0  0  0  0  0
   69.1990   40.6220   35.1150 N   0  0  0  0  0  0  0  0  0  0  0  0
   60.0490   44.2280   31.8840 C   0  0  0  0  0  0  0  0  0  0  0  0
   69.8880   38.9530   33.5550 C   0  0  0  0  0  0  0  0  0  0  0  0
   71.1230   37.7230   35.1180 C   0  0  0  0  0  0  0  0  0  0  0  0
   64.0360   43.9270   33.7580 C   0  0  0  0  0  0  0  0  0  0  0  0
   63.1970   43.9930   35.1390 C   0  0  0  0  0  0  0  0  0  0  0  0
   71.1380   38.9970   35.5270 C   0  0  0  0  0  0  0  0  0  0  0  0
   67.3660   42.9860   34.4840 C   0  0  0  0  0  0  0  0  0  0  0  0
   60.7720   44.2510   30.5860 O   0  0  0  0  0  0  0  0  0  0  0  0
   65.6040   44.1430   35.9630 C   0  0  0  0  0  0  0  0  0  0  0  0
   62.5000   45.2220   32.0330 C   0  0  0  0  0  0  0  0  0  0  0  0
   68.3930   41.8670   34.8870 C   0  0  0  0  0  0  0  0  0  0  0  0
   69.5130   41.9860   37.0880 O   0  0  0  0  0  0  0  0  0  0  0  0
   68.7340   42.4890   36.3030 C   0  0  0  0  0  0  0  0  0  0  0  0
   64.1580   44.1970   36.2940 C   0  0  0  0  0  0  0  0  0  0  0  0
   69.2440   40.0800   33.8200 C   0  0  0  0  0  0  0  0  0  0  0  0
   66.0030   43.3020   34.9440 C   0  0  0  0  0  0  0  0  0  0  0  0
   63.3060   44.9220   33.2270 C   0  0  0  0  0  0  0  0  0  0  0  0
   65.0670   42.8580   34.0380 C   0  0  0  0  0  0  0  0  0  0  0  0
  1 14  1  0
  2  1  1  0
  6  5  1  0
  7  4  1  0
  8 21  2  0
  9 12  2  0
 10 23  1  0
 10 24  1  0
 10 11  1  0
 11 20  1  0
 12  5  1  0
 14  7  1  0
 15 20  1  0
 16  4  1  0
 16 23  1  0
 17 13  1  0
 17  6  1  0
 17 19  1  0
 19  3  2  0
 19 18  1  0
 21  6  1  0
 22 13  1  0
 22 15  1  0
 24 22  1  0
M  END
$$$$

     RDKit          3D

 14 14  0  0  0  0  0  0  0  0999 V2000
   66.4730   43.0220   35.6980 C   0  0  0  0  0  0  0  0  0  0  0  0
   68.9980   42.1710   38.7150 C   0  0  0  0  0  0  0  0  0  0  0  0
   67.7550   41.4770   39.4130 C   0  0  0  0  0  0  0  0  0  0  0  0
   68.7180   42.3020   37.2000 C   0  0  0  0  0  0  0  0  0  0  0  0
   64.8700   44.3770   37.2510 C   0  0  0  0  0  0  0  0  0  0  0  0
   62.8800   44.3310   35.4440 N   0  0  0  0  0  0  0  0  0  0  0  0
   67.2160   42.9280   37.0860 O   0  0  0  0  0  0  0  0  0  0  0  0
   67.8270   41.0830   35.4070 C   0  0  0  0  0  0  0  0  0  0  0  0
   64.3080   44.7480   35.1910 C   0  0  0  0  0  0  0  0  0  0  0  0
   67.4250   40.0110   34.6060 O   0  0  0  0  0  0  0  0  0  0  0  0
   67.1370   42.2480   34.9210 C   0  0  0  0  0  0  0  0  0  0  0  0
   69.3680   43.4030   39.6240 C   0  0  0  0  0  0  0  0  0  0  0  0
   68.2180   40.8890   36.7270 O   0  0  0  0  0  0  0  0  0  0  0  0
   65.1840   43.7580   35.9640 C   0  0  0  0  0  0  0  0  0  0  0  0
  1 14  1  0
  1  7  1  0
  2  3  1  0
  2 12  1  0
  4  2  1  0
  7  4  1  0
  8 13  1  0
  9  6  1  0
  9 14  1  0
 10  8  2  0
 11  8  1  0
 11  1  1  0
 13  4  1  0
 14  5  1  0
M  END
$$$$

     RDKit          3D

 11 12  0  0  0  0  0  0  0  0999 V2000
   66.0240   43.6420   36.8180 C   0  0  0  0  0  0  0  0  0  0  0  0
   68.8160   42.0420   38.1720 C   0  0  0  0  0  0  0  0  0  0  0  0
   65.2060   45.6890   38.0720 C   0  0  0  0  0  0  0  0  0  0  0  0
   67.0220   43.9690   37.8090 C   0  0  0  0  0  0  0  0  0  0  0  0
   68.3690   43.4550   38.0180 C   0  0  0  0  0  0  0  0  0  0  0  0
   68.5310   44.2280   40.6930 S   0  0  0  0  0  0  0  0  0  0  0  0
   65.0750   45.6520   36.4620 C   0  0  0  0  0  0  0  0  0  0  0  0
   65.2660   44.3460   35.9980 N   0  0  0  0  0  0  0  0  0  0  0  0
   67.8650   46.2210   37.9120 N   0  0  0  0  0  0  0  0  0  0  0  0
   66.6710   45.3850   38.2780 C   0  0  0  0  0  0  0  0  0  0  0  0
   68.6990   42.9170   39.4560 C   0  0  0  0  0  0  0  0  0  0  0  0
  2 11  1  0
  3 10  1  0
  4  1  1  0
  4  5  1  0
  4 10  1  0
  5  2  1  0
  5 11  1  0
  7  3  1  0
  8  7  1  0
  8  1  1  0
 10  9  1  0
 11  6  1  0
M  END
$$$$

     RDKit          3D

 16 16  0  0  0  0  0  0  0  0999 V2000
   67.0840   40.7930   37.3300 C   0  0  0  0  0  0  0  0  0  0  0  0
   67.0470   38.1410   38.1620 C   0  0  0  0  0  0  0  0  0  0  0  0
   67.9690   40.8490   34.8020 C   0  0  0  0  0  0  0  0  0  0  0  0
   66.6930   39.6050   38.2080 C   0  0  0  0  0  0  0  0  0  0  0  0
   66.0390   43.4580   28.8010 O   0  0  0  0  0  0  0  0  0  0  0  0
   67.0500   40.5630   35.8010 C   0  0  0  0  0  0  0  0  0  0  0  0
   66.4080   45.4760   29.8740 O   0  0  0  0  0  0  0  0  0  0  0  0
   68.1160   44.7240   28.2690 O   0  0  0  0  0  0  0  0  0  0  0  0
   68.8110   41.7510   32.8400 N   0  0  0  0  0  0  0  0  0  0  0  0
   67.1060   44.5930   29.4640 P   0  0  0  0  0  0  0  0  0  0  0  0
   67.3910   42.2850   32.7030 C   0  0  0  0  0  0  0  0  0  0  0  0
   66.9190   43.3650   31.8550 C   0  0  0  0  0  0  0  0  0  0  0  0
   68.1010   42.1750   34.0480 C   0  0  0  0  0  0  0  0  0  0  0  0
   65.9380   44.1580   32.0480 O   0  0  0  0  0  0  0  0  0  0  0  0
   66.8360   42.1160   37.8680 N   0  0  0  0  0  0  0  0  0  0  0  0
   67.7030   43.7030   30.6070 C   0  0  0  0  0  0  0  0  0  0  0  0
  1 15  1  0
  1  4  1  0
  2  4  1  0
  3  6  1  0
  5 10  1  0
  6  1  1  0
  8 10  2  0
  9 13  1  0
 10  7  1  0
 10 16  1  0
 11 12  1  0
 11  9  1  0
 11 13  1  0
 12 14  2  0
 13  3  1  0
 16 12  1  0
M  END
$$$$

     RDKit          3D

 18 19  0  0  0  0  0  0  0  0999 V2000
   67.7930   42.0310   33.4170 C   0  0  0  0  0  0  0  0  0  0  0  0
   65.8640   44.3480   36.2840 S   0  0  0  0  0  0  0  0  0  0  0  0
   63.7810   43.5720   41.8380 O   0  0  0  0  0  0  0  0  0  0  0  0
   70.1820   41.1570   31.6620 C   0  0  0  0  0  0  0  0  0  0  0  0
   64.4880   44.5270   37.4320 C   0  0  0  0  0  0  0  0  0  0  0  0
   68.0130   42.8430   29.2150 C   0  0  0  0  0  0  0  0  0  0  0  0
   69.2550   42.2930   31.2740 C   0  0  0  0  0  0  0  0  0  0  0  0
   64.2060   43.9200   40.4540 S   0  0  0  0  0  0  0  0  0  0  0  0
   65.7980   44.5550   40.9090 N   0  0  0  0  0  0  0  0  0  0  0  0
   68.3270   40.9710   33.8350 C   0  0  0  0  0  0  0  0  0  0  0  0
   66.8300   42.9130   35.6520 C   0  0  0  0  0  0  0  0  0  0  0  0
   66.5920   42.7820   34.1010 O   0  0  0  0  0  0  0  0  0  0  0  0
   64.7150   43.9510   38.6960 C   0  0  0  0  0  0  0  0  0  0  0  0
   67.9040   42.3650   31.9260 C   0  0  0  0  0  0  0  0  0  0  0  0
   67.3260   40.5890   30.1460 C   0  0  0  0  0  0  0  0  0  0  0  0
   63.3590   44.9410   40.4410 O   0  0  0  0  0  0  0  0  0  0  0  0
   69.4290   40.3990   32.8400 C   0  0  0  0  0  0  0  0  0  0  0  0
   68.0800   41.9140   30.4780 C   0  0  0  0  0  0  0  0  0  0  0  0
  1 10  1  0
  1 12  1  0
  2  5  1  0
  4 17  1  0
  5 13  1  0
  6 18  1  0
  7  4  1  0
  7 14  1  0
  8  9  1  0
  8  3  2  0
 11  2  1  0
 12 11  1  0
 13  8  1  0
 14 18  1  0
 14  1  1  0
 15 18  1  0
 16  8  2  0
 17 10  1  0
 18  7  1  0
M  END
$$$$

     RDKit          3D

 25 26  0  0  0  0  0  0  0  0999 V2000
   62.3680   46.8420   29.5220 C   0  0  0  0  0  0  0  0  0  0  0  0
   63.5560   43.3070   28.1060 C   0  0  0  0  0  0  0  0  0  0  0  0
   66.1580   44.2970   37.2330 C   0  0  0  0  0  0  0  0  0  0  0  0
   63.5540   44.2650   33.8090 C   0  0  0  0  0  0  0  0  0  0  0  0
   71.1620   43.0430   43.6930 C   0  0  0  0  0  0  0  0  0  0  0  0
   63.0590   43.7560   31.3780 C   0  0  0  0  0  0  0  0  0  0  0  0
   68.2140   44.0480   38.6020 C   0  0  0  0  0  0  0  0  0  0  0  0
   69.9370   43.2980   41.1410 N   0  0  0  0  0  0  0  0  0  0  0  0
   69.7410   44.2670   42.1260 C   0  0  0  0  0  0  0  0  0  0  0  0
   62.9990   45.3420   26.8520 C   0  0  0  0  0  0  0  0  0  0  0  0
   62.1000   45.0320   28.0610 C   0  0  0  0  0  0  0  0  0  0  0  0
   65.2890   43.8830   36.0320 C   0  0  0  0  0  0  0  0  0  0  0  0
   65.2100   44.1200   38.4150 C   0  0  0  0  0  0  0  0  0  0  0  0
   70.4260   43.4350   38.7630 O   0  0  0  0  0  0  0  0  0  0  0  0
   69.3490   43.5910   39.6920 C   0  0  0  0  0  0  0  0  0  0  0  0
   62.9300   45.0170   30.8330 C   0  0  0  0  0  0  0  0  0  0  0  0
   72.0580   43.1220   42.3980 C   0  0  0  0  0  0  0  0  0  0  0  0
   64.7440   44.3770   34.7740 C   0  0  0  0  0  0  0  0  0  0  0  0
   69.8130   43.8520   43.4630 N   0  0  0  0  0  0  0  0  0  0  0  0
   71.0630   42.3490   41.5060 C   0  0  0  0  0  0  0  0  0  0  0  0
   63.0490   45.3430   29.3000 C   0  0  0  0  0  0  0  0  0  0  0  0
   64.2640   44.5400   28.8400 C   0  0  0  0  0  0  0  0  0  0  0  0
   67.4380   43.4290   37.3870 C   0  0  0  0  0  0  0  0  0  0  0  0
   63.5860   43.7150   26.6910 C   0  0  0  0  0  0  0  0  0  0  0  0
   63.7500   43.6290   32.6580 C   0  0  0  0  0  0  0  0  0  0  0  0
  2 22  1  0
  3 23  1  0
  3 13  1  0
  4 18  1  0
  6 25  1  0
  7 15  1  0
  8 20  1  0
  8  9  1  0
  9 19  1  0
 10 11  1  0
 11 21  1  0
 12  3  1  0
 14 15  2  0
 15  8  1  0
 16  6  1  0
 17  5  1  0
 18 12  1  0
 19  5  1  0
 20 17  1  0
 21  1  1  0
 21 16  1  0
 22 21  1  0
 23  7  1  0
 24 10  1  0
 24  2  1  0
 25  4  1  0
M  END
$$$$

     RDKit          3D

  9 10  0  0  0  0  0  0  0  0999 V2000
   65.1790   42.7430   33.6750 C   0  0  0  0  0  0  0  0  0  0  0  0
   66.5460   42.4930   32.8170 C   0  0  0  0  0  0  0  0  0  0  0  0
   62.1420   41.9850   30.5860 C   0  0  0  0  0  0  0  0  0  0  0  0
   66.8110   43.4910   35.4910 C   0  0  0  0  0  0  0  0  0  0  0  0
   66.6850   42.7540   36.7340 N   0  0  0  0  0  0  0  0  0  0  0  0
   63.3780   41.4900   30.7380 C   0  0  0  0  0  0  0  0  0  0  0  0
   64.8160   41.3860   31.2730 C   0  0  0  0  0  0  0  0  0  0  0  0
   66.7100   42.6980   34.2010 C   0  0  0  0  0  0  0  0  0  0  0  0
   65.2520   42.5980   32.1300 C   0  0  0  0  0  0  0  0  0  0  0  0
  1  8  1  0
  2  1  1  0
  2  8  1  0
  3  6  1  0
  4  5  1  0
  6  7  1  0
  7  9  1  0
  8  4  1  0
  9  2  1  0
  9  1  1  0
M  END
$$$$

     RDKit          3D

  6  5  0  0  0  0  0  0  0  0999 V2000
   64.7170   48.0110   35.5200 C   0  0  0  0  0  0  0  0  0  0  0  0
   65.0480   48.3390   34.3280 C   0  0  0  0  0  0  0  0  0  0  0  0
   63.3960   47.4660   32.7830 N   0  0  0  0  0  0  0  0  0  0  0  0
   64.5660   46.7210   36.1520 O   0  0  0  0  0  0  0  0  0  0  0  0
   64.4010   48.3440   33.1300 C   0  0  0  0  0  0  0  0  0  0  0  0
   64.5590   48.4960   36.6740 O   0  0  0  0  0  0  0  0  0  0  0  0
  1  4  2  0
  1  6  1  0
  2  1  1  0
  3  5  1  0
  5  2  1  0
M  END
$$$$

     RDKit          3D

 23 22  0  0  0  0  0  0  0  0999 V2000
   64.8610   46.6760   38.5720 C   0  0  0  0  0  0  0  0  0  0  0  0
   62.3480   46.9740   37.6820 C   0  0  0  0  0  0  0  0  0  0  0  0
   70.3420   39.4010   32.4510 C   0  0  0  0  0  0  0  0  0  0  0  0
   69.7980   41.5550   39.4810 C   0  0  0  0  0  0  0  0  0  0  0  0
   68.9100   43.6550   37.3900 C   0  0  0  0  0  0  0  0  0  0  0  0
   61.1750   46.6520   38.4820 N   0  0  0  0  0  0  0  0  0  0  0  0
   61.3840   46.7000   39.7070 O   0  0  0  0  0  0  0  0  0  0  0  0
   68.5490   42.0250   36.4550 C   0  0  0  0  0  0  0  0  0  0  0  0
   70.2080   40.2340   34.8500 C   0  0  0  0  0  0  0  0  0  0  0  0
   69.6310   40.1670   33.4510 C   0  0  0  0  0  0  0  0  0  0  0  0
   69.5010   43.9600   38.9040 C   0  0  0  0  0  0  0  0  0  0  0  0
   67.2110   45.4310   38.3060 C   0  0  0  0  0  0  0  0  0  0  0  0
   72.0430   38.2010   31.3180 C   0  0  0  0  0  0  0  0  0  0  0  0
   73.8030   37.0410   32.4890 C   0  0  0  0  0  0  0  0  0  0  0  0
   59.8730   46.8160   38.2040 O   0  0  0  0  0  0  0  0  0  0  0  0
   68.9790   40.2940   35.9060 C   0  0  0  0  0  0  0  0  0  0  0  0
   65.7100   45.5170   38.0700 C   0  0  0  0  0  0  0  0  0  0  0  0
   67.8000   44.6030   37.2310 O   0  0  0  0  0  0  0  0  0  0  0  0
   70.5570   42.9000   39.1920 C   0  0  0  0  0  0  0  0  0  0  0  0
   71.2260   39.4820   31.5430 C   0  0  0  0  0  0  0  0  0  0  0  0
   71.2030   43.3620   40.5200 C   0  0  0  0  0  0  0  0  0  0  0  0
   72.4710   37.1300   32.2150 C   0  0  0  0  0  0  0  0  0  0  0  0
   63.4000   46.2520   38.5120 C   0  0  0  0  0  0  0  0  0  0  0  0
  2  6  1  0
  2 23  1  0
  3 10  1  0
  5  8  1  0
  5 11  1  0
  6  7  2  0
  9 16  1  0
 10  9  1  0
 11 19  1  0
 13 20  1  0
 13 22  1  0
 15  6  2  0
 16  8  1  0
 17 12  1  0
 17  1  1  0
 18  5  1  0
 18 12  1  0
 19  4  1  0
 19 21  1  0
 20  3  1  0
 22 14  2  0
 23  1  1  0
M  END
$$$$

     RDKit          3D

  5  4  0  0  0  0  0  0  0  0999 V2000
   69.0490   47.0310   37.4890 O   0  0  0  0  0  0  0  0  0  0  0  0
   69.5550   45.8270   39.4060 C   0  0  0  0  0  0  0  0  0  0  0  0
   70.8260   46.6830   39.4180 O   0  0  0  0  0  0  0  0  0  0  0  0
   69.4800   44.7620   39.9030 O   0  0  0  0  0  0  0  0  0  0  0  0
   68.6300   46.2550   38.1660 C   0  0  0  0  0  0  0  0  0  0  0  0
  1  5  2  0
  2  3  2  0
  2  4  1  0
  5  2  1  0
M  END
$$$$

     RDKit          3D

 11 11  0  0  0  0  0  0  0  0999 V2000
   67.3850   43.5640   36.4700 O   0  0  0  0  0  0  0  0  0  0  0  0
   64.2080   44.6880   36.4370 N   0  0  0  0  0  0  0  0  0  0  0  0
   66.9970   42.3650   38.8720 C   0  0  0  0  0  0  0  0  0  0  0  0
   66.1780   43.0090   34.1610 O   0  0  0  0  0  0  0  0  0  0  0  0
   68.4590   41.8060   38.9320 C   0  0  0  0  0  0  0  0  0  0  0  0
   66.2580   43.3560   36.8920 C   0  0  0  0  0  0  0  0  0  0  0  0
   64.9540   43.3600   36.2330 C   0  0  0  0  0  0  0  0  0  0  0  0
   65.1220   43.2230   34.7560 C   0  0  0  0  0  0  0  0  0  0  0  0
   68.3230   43.3010   39.4050 C   0  0  0  0  0  0  0  0  0  0  0  0
   66.1710   43.6170   38.3770 C   0  0  0  0  0  0  0  0  0  0  0  0
   64.1570   43.7020   34.0110 O   0  0  0  0  0  0  0  0  0  0  0  0
  1  6  2  0
  3  5  1  0
  3  9  1  0
  4  8  1  0
  5  9  1  0
  6 10  1  0
  7  2  1  0
  7  6  1  0
  8  7  1  0
 10  3  1  0
 11  8  2  0
M  END
$$$$

     RDKit          3D

  5  4  0  0  0  0  0  0  0  0999 V2000
   65.7530   48.0600   33.6700 C   0  0  0  0  0  0  0  0  0  0  0  0
   65.2620   48.4870   35.0070 C   0  0  0  0  0  0  0  0  0  0  0  0
   67.8040   47.1130   32.8230 C   0  0  0  0  0  0  0  0  0  0  0  0
   63.6060   48.3630   34.6740 N   0  0  0  0  0  0  0  0  0  0  0  0
   67.3980   48.0460   34.1190 C   0  0  0  0  0  0  0  0  0  0  0  0
  1  5  1  0
  1  2  1  0
  3  5  1  0
  4  2  1  0
M  END
$$$$

     RDKit          3D

 16 19  0  0  0  0  0  0  0  0999 V2000
   72.5660   38.2700   36.4010 N   0  0  0  0  0  0  0  0  0  0  0  0
   69.5570   42.7600   35.9520 C   0  0  0  0  0  0  0  0  0  0  0  0
   71.6360   40.2960   38.0620 C   0  0  0  0  0  0  0  0  0  0  0  0
   70.1160   41.9120   37.0700 C   0  0  0  0  0  0  0  0  0  0  0  0
   70.3990   42.8910   34.8760 C   0  0  0  0  0  0  0  0  0  0  0  0
   65.7750   42.7830   33.4960 O   0  0  0  0  0  0  0  0  0  0  0  0
   66.6230   43.5090   33.8720 C   0  0  0  0  0  0  0  0  0  0  0  0
   68.4540   42.3010   35.0240 O   0  0  0  0  0  0  0  0  0  0  0  0
   71.1390   40.1760   35.5230 C   0  0  0  0  0  0  0  0  0  0  0  0
   69.6030   43.4370   33.7540 C   0  0  0  0  0  0  0  0  0  0  0  0
   71.3520   41.0700   36.7890 C   0  0  0  0  0  0  0  0  0  0  0  0
   68.0730   43.1390   33.9880 C   0  0  0  0  0  0  0  0  0  0  0  0
   71.6570   39.4610   36.7380 C   0  0  0  0  0  0  0  0  0  0  0  0
   70.3960   42.6100   38.3130 O   0  0  0  0  0  0  0  0  0  0  0  0
   70.1600   42.2620   33.8410 N   0  0  0  0  0  0  0  0  0  0  0  0
   69.7010   44.9710   34.2100 O   0  0  0  0  0  0  0  0  0  0  0  0
  2  4  1  0
  4 14  1  0
  5 15  1  0
  5  2  1  0
  6  7  2  0
  8  2  1  0
  9 13  1  0
  9 11  1  0
 10 15  1  0
 10 12  1  0
 10 16  1  0
 10  5  1  0
 11  4  1  0
 11  3  1  0
 12  7  1  0
 12  8  1  0
 13  1  1  0
 13 11  1  0
 13  3  1  0
M  END
$$$$

     RDKit          3D

 16 16  0  0  0  0  0  0  0  0999 V2000
   67.5630   43.7630   37.8050 O   0  0  0  0  0  0  0  0  0  0  0  0
   63.8060   47.4700   30.3680 O   0  0  0  0  0  0  0  0  0  0  0  0
   61.3860   46.9770   36.0480 O   0  0  0  0  0  0  0  0  0  0  0  0
   62.9230   45.1700   31.0080 O   0  0  0  0  0  0  0  0  0  0  0  0
   62.3110   45.8450   35.5370 C   0  0  0  0  0  0  0  0  0  0  0  0
   63.1780   45.3230   33.3790 C   0  0  0  0  0  0  0  0  0  0  0  0
   64.3150   44.7940   36.3110 C   0  0  0  0  0  0  0  0  0  0  0  0
   64.2310   44.5770   33.8570 C   0  0  0  0  0  0  0  0  0  0  0  0
   66.6740   43.1510   35.5620 O   0  0  0  0  0  0  0  0  0  0  0  0
   63.5530   47.2150   31.7310 C   0  0  0  0  0  0  0  0  0  0  0  0
   65.3530   44.5760   37.3870 C   0  0  0  0  0  0  0  0  0  0  0  0
   63.1540   45.4370   36.5300 C   0  0  0  0  0  0  0  0  0  0  0  0
   64.5780   44.2570   35.0610 C   0  0  0  0  0  0  0  0  0  0  0  0
   63.1120   45.7810   31.9790 C   0  0  0  0  0  0  0  0  0  0  0  0
   62.1720   45.7100   34.2360 C   0  0  0  0  0  0  0  0  0  0  0  0
   66.5390   43.7790   36.8400 C   0  0  0  0  0  0  0  0  0  0  0  0
  2 10  1  0
  4 14  2  0
  5  3  1  0
  5 12  1  0
  6  8  2  0
  6 15  1  0
  7 12  1  0
  7 11  1  0
  8 13  1  0
  9 16  2  0
 10 14  1  0
 13  7  2  0
 14  6  1  0
 15  5  2  0
 16 11  1  0
 16  1  1  0
M  END
$$$$

     RDKit          3D

 13 14  0  0  0  0  0  0  0  0999 V2000
   61.6320   44.0040   38.0890 C   0  0  0  0  0  0  0  0  0  0  0  0
   60.3480   42.9570   36.4470 C   0  0  0  0  0  0  0  0  0  0  0  0
   63.8050   44.6260   36.7770 C   0  0  0  0  0  0  0  0  0  0  0  0
   59.4930   42.6210   35.4470 N   0  0  0  0  0  0  0  0  0  0  0  0
   58.2870   43.7060   38.1820 O   0  0  0  0  0  0  0  0  0  0  0  0
   62.7160   43.5890   37.1540 C   0  0  0  0  0  0  0  0  0  0  0  0
   60.4730   43.0760   37.8960 C   0  0  0  0  0  0  0  0  0  0  0  0
   64.3600   45.2080   37.7010 O   0  0  0  0  0  0  0  0  0  0  0  0
   64.2050   44.5980   35.5480 O   0  0  0  0  0  0  0  0  0  0  0  0
   60.1610   44.3200   39.7580 N   0  0  0  0  0  0  0  0  0  0  0  0
   59.4330   43.6340   38.6550 C   0  0  0  0  0  0  0  0  0  0  0  0
   61.6510   43.8430   39.6150 C   0  0  0  0  0  0  0  0  0  0  0  0
   61.5650   43.8710   36.1570 N   0  0  0  0  0  0  0  0  0  0  0  0
  1 12  1  0
  2  4  1  0
  2  7  1  0
  3  8  1  0
  5 11  2  0
  6  3  1  0
  6  1  1  0
  7  1  1  0
  7 11  1  0
  9  3  2  0
 11 10  1  0
 12 10  1  0
 13  2  1  0
 13  6  1  0
M  END
$$$$

     RDKit          3D

  5  4  0  0  0  0  0  0  0  0999 V2000
   68.2480   47.5440   36.1270 O   0  0  0  0  0  0  0  0  0  0  0  0
   67.5370   46.7330   33.9940 C   0  0  0  0  0  0  0  0  0  0  0  0
   69.6510   47.9560   34.5630 O   0  0  0  0  0  0  0  0  0  0  0  0
   68.4540   47.6900   34.8190 C   0  0  0  0  0  0  0  0  0  0  0  0
   68.9980   45.5280   33.9380 C   0  0  0  0  0  0  0  0  0  0  0  0
  2  4  1  0
  3  4  2  0
  4  1  1  0
  5  2  1  0
M  END
$$$$

     RDKit          3D

 11 10  0  0  0  0  0  0  0  0999 V2000
   65.5410   44.0430   36.3070 C   0  0  0  0  0  0  0  0  0  0  0  0
   67.7770   42.5320   37.8300 C   0  0  0  0  0  0  0  0  0  0  0  0
   68.8150   42.2550   37.4160 O   0  0  0  0  0  0  0  0  0  0  0  0
   67.1450   43.7680   38.3040 C   0  0  0  0  0  0  0  0  0  0  0  0
   65.8110   44.2060   37.7630 C   0  0  0  0  0  0  0  0  0  0  0  0
   67.0500   41.5870   37.4720 O   0  0  0  0  0  0  0  0  0  0  0  0
   62.6620   45.4280   36.6420 C   0  0  0  0  0  0  0  0  0  0  0  0
   64.7390   44.7930   34.2420 O   0  0  0  0  0  0  0  0  0  0  0  0
   67.9370   44.7790   39.0440 C   0  0  0  0  0  0  0  0  0  0  0  0
   62.9840   44.6830   35.3700 C   0  0  0  0  0  0  0  0  0  0  0  0
   64.4480   44.3650   35.2950 C   0  0  0  0  0  0  0  0  0  0  0  0
  1  5  2  3
  2  4  1  0
  3  2  2  0
  4  9  1  0
  5  4  1  0
  6  2  1  0
  8 11  2  0
 10  7  1  0
 11 10  1  0
 11  1  1  0
M  END
$$$$

     RDKit          3D

 25 25  0  0  0  0  0  0  0  0999 V2000
   63.2990   45.1640   32.9770 N   0  0  0  0  0  0  0  0  0  0  0  0
   64.5410   44.4790   35.1710 C   0  0  0  0  0  0  0  0  0  0  0  0
   64.6960   45.4910   37.3960 N   0  0  0  0  0  0  0  0  0  0  0  0
   68.5700   42.0000   36.2660 C   0  0  0  0  0  0  0  0  0  0  0  0
   67.0760   43.8700   37.0620 C   0  0  0  0  0  0  0  0  0  0  0  0
   62.4710   46.1760   35.1780 C   0  0  0  0  0  0  0  0  0  0  0  0
   61.1870   48.4910   36.8140 O   0  0  0  0  0  0  0  0  0  0  0  0
   70.2230   42.3480   38.3070 C   0  0  0  0  0  0  0  0  0  0  0  0
   71.2680   39.4880   37.4200 O   0  0  0  0  0  0  0  0  0  0  0  0
   66.9120   44.6650   38.4140 O   0  0  0  0  0  0  0  0  0  0  0  0
   62.5080   45.1750   34.1230 C   0  0  0  0  0  0  0  0  0  0  0  0
   59.2100   47.0110   36.2640 C   0  0  0  0  0  0  0  0  0  0  0  0
   71.9800   40.3820   37.9500 P   0  0  0  0  0  0  0  0  0  0  0  0
   72.9450   41.0600   36.9700 O   0  0  0  0  0  0  0  0  0  0  0  0
   68.3180   43.2010   37.4150 C   0  0  0  0  0  0  0  0  0  0  0  0
   63.5450   45.5070   35.2300 C   0  0  0  0  0  0  0  0  0  0  0  0
   60.6520   47.7420   35.7230 C   0  0  0  0  0  0  0  0  0  0  0  0
   69.1160   43.4240   38.4860 C   0  0  0  0  0  0  0  0  0  0  0  0
   71.0740   42.0050   38.3530 C   0  0  0  0  0  0  0  0  0  0  0  0
   65.7540   43.1790   36.9060 C   0  0  0  0  0  0  0  0  0  0  0  0
   69.7650   41.7670   35.2060 N   0  0  0  0  0  0  0  0  0  0  0  0
   72.6970   40.3980   39.1620 O   0  0  0  0  0  0  0  0  0  0  0  0
   61.4030   46.4030   36.0550 C   0  0  0  0  0  0  0  0  0  0  0  0
   64.8160   44.3290   36.6480 C   0  0  0  0  0  0  0  0  0  0  0  0
   61.3210   45.8510   33.7010 O   0  0  0  0  0  0  0  0  0  0  0  0
  2 24  1  0
  5 15  1  0
  5 10  1  0
  6 16  1  0
  6 23  1  0
  8 19  1  0
  8 18  1  0
  9 13  1  0
 11  1  1  0
 11  6  1  0
 11 16  1  0
 13 19  1  0
 13 22  1  0
 14 13  2  0
 15  4  1  0
 15 18  1  0
 16  2  1  0
 17 23  1  0
 17 12  1  0
 17  7  1  0
 20  5  1  0
 21  4  1  0
 24 20  1  0
 24  3  1  0
 25 11  1  0
M  END
$$$$

     RDKit          3D

  5  5  0  0  0  0  0  0  0  0999 V2000
   67.7190   48.8810   36.3140 C   0  0  0  0  0  0  0  0  0  0  0  0
   67.0940   47.6500   36.8430 C   0  0  0  0  0  0  0  0  0  0  0  0
   66.4180   47.8410   38.0430 O   0  0  0  0  0  0  0  0  0  0  0  0
   66.4700   47.1890   35.3550 C   0  0  0  0  0  0  0  0  0  0  0  0
   67.7140   47.4810   38.4510 C   0  0  0  0  0  0  0  0  0  0  0  0
  1  2  1  0
  2  3  1  0
  2  5  1  0
  3  5  1  0
  4  2  1  0
M  END
$$$$

     RDKit          3D

 22 23  0  0  0  0  0  0  0  0999 V2000
   70.1250   42.0080   37.8710 C   0  0  0  0  0  0  0  0  0  0  0  0
   65.6040   42.0910   32.5620 C   0  0  0  0  0  0  0  0  0  0  0  0
   61.8600   44.0390   32.3960 C   0  0  0  0  0  0  0  0  0  0  0  0
   60.2990   45.7920   33.3030 C   0  0  0  0  0  0  0  0  0  0  0  0
   69.6850   42.9330   36.3400 C   0  0  0  0  0  0  0  0  0  0  0  0
   71.2310   43.2770   35.8320 C   0  0  0  0  0  0  0  0  0  0  0  0
   69.2430   43.1890   35.0140 O   0  0  0  0  0  0  0  0  0  0  0  0
   61.3370   44.7890   33.4490 N   0  0  0  0  0  0  0  0  0  0  0  0
   64.7860   42.2720   31.4230 C   0  0  0  0  0  0  0  0  0  0  0  0
   67.0070   43.1560   35.5960 C   0  0  0  0  0  0  0  0  0  0  0  0
   68.1230   42.6620   36.5780 C   0  0  0  0  0  0  0  0  0  0  0  0
   66.0610   43.6170   35.9730 O   0  0  0  0  0  0  0  0  0  0  0  0
   63.9970   43.5460   33.6750 C   0  0  0  0  0  0  0  0  0  0  0  0
   65.3210   42.5850   33.8920 C   0  0  0  0  0  0  0  0  0  0  0  0
   63.2610   43.7270   32.4140 C   0  0  0  0  0  0  0  0  0  0  0  0
   65.2350   40.7680   30.1950 S   0  0  0  0  0  0  0  0  0  0  0  0
   61.0550   43.5240   31.5440 O   0  0  0  0  0  0  0  0  0  0  0  0
   71.5730   43.8800   34.2130 C   0  0  0  0  0  0  0  0  0  0  0  0
   66.6780   42.8470   34.5640 N   0  0  0  0  0  0  0  0  0  0  0  0
   63.9480   43.3700   31.3130 C   0  0  0  0  0  0  0  0  0  0  0  0
   62.7310   43.3060   34.6050 C   0  0  0  0  0  0  0  0  0  0  0  0
   61.9140   44.4900   34.6900 C   0  0  0  0  0  0  0  0  0  0  0  0
  2 14  1  0
  3 15  1  0
  3  8  1  0
  4  8  1  0
  5 11  1  0
  5  1  1  0
  6  5  1  0
  7  5  1  0
  8 22  1  0
  9 16  1  0
  9  2  1  0
 10 12  2  0
 10 11  1  0
 13 14  1  0
 13 21  1  0
 14 19  1  0
 15 20  1  0
 15 13  1  0
 17  3  2  0
 18  6  1  0
 19 10  1  0
 20  9  1  0
 21 22  1  0
M  END
$$$$
