
     RDKit          3D

 13 13  0  0  0  0  0  0  0  0999 V2000
   63.4010   43.1010   37.8420 C   0  0  0  0  0  0  0  0  0  0  0  0
   61.9640   47.6900   36.5420 O   0  0  0  0  0  0  0  0  0  0  0  0
   64.7610   45.1530   36.6680 C   0  0  0  0  0  0  0  0  0  0  0  0
   62.9770   47.2450   35.6100 C   0  0  0  0  0  0  0  0  0  0  0  0
   61.4070   45.5120   34.7530 C   0  0  0  0  0  0  0  0  0  0  0  0
   63.6440   45.4310   33.8890 C   0  0  0  0  0  0  0  0  0  0  0  0
   63.0100   48.1220   34.5090 O   0  0  0  0  0  0  0  0  0  0  0  0
   62.8310   45.7990   35.1560 C   0  0  0  0  0  0  0  0  0  0  0  0
   65.2620   42.6700   39.2920 O   0  0  0  0  0  0  0  0  0  0  0  0
   62.8770   43.7140   36.6770 C   0  0  0  0  0  0  0  0  0  0  0  0
   65.4060   44.3920   37.6310 C   0  0  0  0  0  0  0  0  0  0  0  0
   64.6800   43.4660   38.3780 C   0  0  0  0  0  0  0  0  0  0  0  0
   63.4010   44.8960   36.2520 C   0  0  0  0  0  0  0  0  0  0  0  0
  1 12  1  0
  3 11  1  0
  4  2  1  0
  5  8  1  0
  6  8  1  0
  7  4  1  0
  8  4  1  0
  8 13  1  0
 10  1  2  0
 11 12  2  0
 12  9  1  0
 13  3  2  0
 13 10  1  0
M  END
$$$$

     RDKit          3D

  9  8  0  0  0  0  0  0  0  0999 V2000
   60.5980   46.4360   37.3520 O   0  0  0  0  0  0  0  0  0  0  0  0
   62.7090   47.1210   35.1010 C   0  0  0  0  0  0  0  0  0  0  0  0
   61.7100   48.3370   38.3390 O   0  0  0  0  0  0  0  0  0  0  0  0
   63.1100   46.7430   33.6850 C   0  0  0  0  0  0  0  0  0  0  0  0
   62.2750   45.5550   33.1190 C   0  0  0  0  0  0  0  0  0  0  0  0
   61.7920   46.9790   37.7360 S   0  0  0  0  0  0  0  0  0  0  0  0
   62.7530   45.2700   31.7020 C   0  0  0  0  0  0  0  0  0  0  0  0
   62.6430   47.2870   36.2650 C   0  0  0  0  0  0  0  0  0  0  0  0
   62.4080   46.1200   38.8090 O   0  0  0  0  0  0  0  0  0  0  0  0
  1  6  1  0
  2  8  1  0
  4  2  1  0
  5  4  1  0
  6  3  1  0
  6  9  1  0
  7  5  1  0
  8  6  1  0
M  END
$$$$

     RDKit          3D

  8  7  0  0  0  0  0  0  0  0999 V2000
   61.9360   44.8920   31.8340 C   0  0  0  0  0  0  0  0  0  0  0  0
   63.2530   46.6510   31.5510 O   0  0  0  0  0  0  0  0  0  0  0  0
   62.3010   45.6700   34.7580 C   0  0  0  0  0  0  0  0  0  0  0  0
   63.0780   45.4650   32.4220 C   0  0  0  0  0  0  0  0  0  0  0  0
   65.4960   44.4650   32.2480 O   0  0  0  0  0  0  0  0  0  0  0  0
   61.6540   46.3620   35.6780 N   0  0  0  0  0  0  0  0  0  0  0  0
   63.1700   45.9320   33.8210 C   0  0  0  0  0  0  0  0  0  0  0  0
   64.2810   44.6740   32.1180 C   0  0  0  0  0  0  0  0  0  0  0  0
  2  4  1  0
  3  6  2  0
  4  1  1  0
  4  7  1  0
  7  3  1  0
  8  5  2  0
  8  4  1  0
M  END
$$$$

     RDKit          3D

 11 11  0  0  0  0  0  0  0  0999 V2000
   62.8030   43.9330   36.5550 N   0  0  0  0  0  0  0  0  0  0  0  0
   64.1430   44.0470   33.3860 C   0  0  0  0  0  0  0  0  0  0  0  0
   64.1920   46.0370   36.9890 C   0  0  0  0  0  0  0  0  0  0  0  0
   64.7630   42.8060   33.0400 O   0  0  0  0  0  0  0  0  0  0  0  0
   65.3060   44.8350   33.9540 C   0  0  0  0  0  0  0  0  0  0  0  0
   64.3470   44.9960   37.9750 N   0  0  0  0  0  0  0  0  0  0  0  0
   63.9590   45.5090   35.7470 O   0  0  0  0  0  0  0  0  0  0  0  0
   63.2360   45.9010   38.0310 C   0  0  0  0  0  0  0  0  0  0  0  0
   62.8800   44.6650   35.3960 C   0  0  0  0  0  0  0  0  0  0  0  0
   66.4780   44.6930   33.3990 N   0  0  0  0  0  0  0  0  0  0  0  0
   62.8690   43.8600   34.1250 C   0  0  0  0  0  0  0  0  0  0  0  0
  2  4  1  0
  2  5  1  0
  2 11  1  0
  3  7  1  0
  3  6  1  0
  3  8  1  0
  6  8  1  0
  9  7  1  0
  9  1  1  0
 10  5  2  0
 11  9  1  0
M  END
$$$$

     RDKit          3D

 10 10  0  0  0  0  0  0  0  0999 V2000
   65.0390   40.9290   30.1240 C   0  0  0  0  0  0  0  0  0  0  0  0
   65.0500   43.1140   28.6200 C   0  0  0  0  0  0  0  0  0  0  0  0
   67.4360   43.5060   29.0250 N   0  0  0  0  0  0  0  0  0  0  0  0
   63.9830   41.1910   29.8150 C   0  0  0  0  0  0  0  0  0  0  0  0
   66.2780   42.7020   29.0320 C   0  0  0  0  0  0  0  0  0  0  0  0
   62.5120   42.9760   29.1420 C   0  0  0  0  0  0  0  0  0  0  0  0
   63.8730   42.4840   29.1520 C   0  0  0  0  0  0  0  0  0  0  0  0
   61.5660   42.4000   29.6690 O   0  0  0  0  0  0  0  0  0  0  0  0
   62.3770   44.1020   28.6430 N   0  0  0  0  0  0  0  0  0  0  0  0
   66.4010   41.4510   29.7170 C   0  0  0  0  0  0  0  0  0  0  0  0
  2  5  1  0
  2  7  1  0
  4  1  1  0
  5  3  1  0
  5 10  1  0
  6  8  2  0
  7  6  1  0
  7  4  1  0
  9  6  1  0
 10  1  1  0
M  END
$$$$

     RDKit          3D

 20 20  0  0  0  0  0  0  0  0999 V2000
   65.4620   47.3050   36.8020 C   0  0  0  0  0  0  0  0  0  0  0  0
   67.9730   46.0780   40.2140 S   0  0  0  0  0  0  0  0  0  0  0  0
   62.6250   45.8500   31.2250 C   0  0  0  0  0  0  0  0  0  0  0  0
   62.0640   45.3250   35.4320 C   0  0  0  0  0  0  0  0  0  0  0  0
   64.9610   48.7250   36.1280 C   0  0  0  0  0  0  0  0  0  0  0  0
   65.8300   45.9200   38.7700 C   0  0  0  0  0  0  0  0  0  0  0  0
   64.2450   46.7610   36.7260 C   0  0  0  0  0  0  0  0  0  0  0  0
   61.7200   45.5150   36.6400 C   0  0  0  0  0  0  0  0  0  0  0  0
   66.8440   45.1960   39.5200 C   0  0  0  0  0  0  0  0  0  0  0  0
   63.7420   46.1520   37.8440 C   0  0  0  0  0  0  0  0  0  0  0  0
   63.1550   44.7190   32.1580 C   0  0  0  0  0  0  0  0  0  0  0  0
   67.6030   46.6700   41.7500 N   0  0  0  0  0  0  0  0  0  0  0  0
   62.5380   45.6180   37.7750 O   0  0  0  0  0  0  0  0  0  0  0  0
   66.1780   46.9790   37.9190 C   0  0  0  0  0  0  0  0  0  0  0  0
   61.5270   45.4070   30.2830 C   0  0  0  0  0  0  0  0  0  0  0  0
   61.9820   44.7730   33.1430 C   0  0  0  0  0  0  0  0  0  0  0  0
   62.2440   45.9120   34.1200 C   0  0  0  0  0  0  0  0  0  0  0  0
   62.9850   47.0120   31.4980 C   0  0  0  0  0  0  0  0  0  0  0  0
   61.1380   43.6820   33.8220 C   0  0  0  0  0  0  0  0  0  0  0  0
   64.4240   45.8010   38.9380 O   0  0  0  0  0  0  0  0  0  0  0  0
  1  5  1  0
  1 14  1  0
  2 12  1  0
  3 18  2  0
  3 11  1  0
  4  8  1  0
  6 20  1  0
  6  9  1  0
  7  1  1  0
  7 10  2  0
  8 13  1  0
  9  2  1  0
 10 20  1  0
 11 16  1  0
 13 10  1  0
 14  6  1  0
 15  3  1  0
 16 19  1  0
 16 17  1  0
 17  4  1  0
M  END
$$$$

     RDKit          3D

 13 13  0  0  0  0  0  0  0  0999 V2000
   68.2510   43.0830   41.0550 O   0  0  0  0  0  0  0  0  0  0  0  0
   68.7140   42.3080   34.3740 C   0  0  0  0  0  0  0  0  0  0  0  0
   70.9050   42.8860   38.7030 C   0  0  0  0  0  0  0  0  0  0  0  0
   70.0580   42.8530   36.3020 C   0  0  0  0  0  0  0  0  0  0  0  0
   69.2360   42.5790   40.4380 C   0  0  0  0  0  0  0  0  0  0  0  0
   70.0540   42.7880   37.6490 C   0  0  0  0  0  0  0  0  0  0  0  0
   69.8600   42.5160   33.5770 C   0  0  0  0  0  0  0  0  0  0  0  0
   70.9640   43.1670   34.0910 C   0  0  0  0  0  0  0  0  0  0  0  0
   70.5980   44.3690   40.6450 O   0  0  0  0  0  0  0  0  0  0  0  0
   70.0490   43.7000   39.7520 C   0  0  0  0  0  0  0  0  0  0  0  0
   69.1310   41.2960   40.5860 C   0  0  0  0  0  0  0  0  0  0  0  0
   71.0520   43.3680   35.4890 C   0  0  0  0  0  0  0  0  0  0  0  0
   68.8010   42.4750   35.7360 C   0  0  0  0  0  0  0  0  0  0  0  0
  2 13  1  0
  3 10  1  0
  4  6  1  0
  5 11  1  0
  5  1  2  0
  6  3  1  0
  7  8  1  0
  7  2  2  0
  8 12  2  0
 10  5  1  0
 10  9  1  0
 12  4  1  0
 13  4  2  0
M  END
$$$$

     RDKit          3D

  9  9  0  0  0  0  0  0  0  0999 V2000
   62.7450   47.3860   37.2610 S   0  0  0  0  0  0  0  0  0  0  0  0
   63.8170   46.3220   34.7100 C   0  0  0  0  0  0  0  0  0  0  0  0
   62.9070   45.5630   32.3880 N   0  0  0  0  0  0  0  0  0  0  0  0
   64.5950   46.7370   36.9890 C   0  0  0  0  0  0  0  0  0  0  0  0
   61.9540   48.6050   36.3940 C   0  0  0  0  0  0  0  0  0  0  0  0
   63.5400   46.4750   36.0440 C   0  0  0  0  0  0  0  0  0  0  0  0
   63.8300   44.7040   32.8990 C   0  0  0  0  0  0  0  0  0  0  0  0
   64.1940   45.0350   34.2020 C   0  0  0  0  0  0  0  0  0  0  0  0
   64.5920   44.5960   31.8960 O   0  0  0  0  0  0  0  0  0  0  0  0
  1  5  1  0
  3  7  1  0
  4  1  1  0
  6  2  1  0
  6  4  1  0
  6  1  1  0
  7  9  1  0
  7  8  1  0
  8  2  1  0
M  END
$$$$

     RDKit          3D

  4  3  0  0  0  0  0  0  0  0999 V2000
   55.2810   52.3750   42.3520 C   0  0  0  0  0  0  0  0  0  0  0  0
   55.8680   53.1560   39.9500 O   0  0  0  0  0  0  0  0  0  0  0  0
   55.8910   52.8460   40.9820 C   0  0  0  0  0  0  0  0  0  0  0  0
   54.3040   52.2780   42.7670 N   0  0  0  0  0  0  0  0  0  0  0  0
  1  4  1  0
  2  3  2  0
  3  1  2  0
M  END
$$$$

     RDKit          3D

 11 10  0  0  0  0  0  0  0  0999 V2000
   61.5430   45.1110   32.0330 C   0  0  0  0  0  0  0  0  0  0  0  0
   62.0120   45.7140   33.1220 C   0  0  0  0  0  0  0  0  0  0  0  0
   63.5250   47.4290   36.7320 O   0  0  0  0  0  0  0  0  0  0  0  0
   63.5490   45.6750   33.2250 C   0  0  0  0  0  0  0  0  0  0  0  0
   60.9740   43.7330   31.6240 C   0  0  0  0  0  0  0  0  0  0  0  0
   62.0170   46.5860   35.7610 O   0  0  0  0  0  0  0  0  0  0  0  0
   64.0220   46.5830   34.3870 C   0  0  0  0  0  0  0  0  0  0  0  0
   64.3190   44.4330   32.9910 C   0  0  0  0  0  0  0  0  0  0  0  0
   63.1010   48.6460   37.3340 C   0  0  0  0  0  0  0  0  0  0  0  0
   63.1220   46.9100   35.5650 C   0  0  0  0  0  0  0  0  0  0  0  0
   59.5950   43.6610   32.5160 C   0  0  0  0  0  0  0  0  0  0  0  0
  1  2  1  0
  2  4  1  0
  3  9  1  0
  4  8  1  0
  4  7  1  0
  5  1  1  0
  5 11  1  0
  7 10  1  0
 10  6  2  0
 10  3  1  0
M  END
$$$$

     RDKit          3D

  9  9  0  0  0  0  0  0  0  0999 V2000
   59.1110   43.6470   36.6700 N   0  0  0  0  0  0  0  0  0  0  0  0
   59.8860   47.9060   34.4510 C   0  0  0  0  0  0  0  0  0  0  0  0
   59.9540   46.5080   34.7350 N   0  0  0  0  0  0  0  0  0  0  0  0
   59.2070   45.8050   35.8570 C   0  0  0  0  0  0  0  0  0  0  0  0
   60.6480   47.5210   36.8110 N   0  0  0  0  0  0  0  0  0  0  0  0
   60.1090   47.8950   35.6960 C   0  0  0  0  0  0  0  0  0  0  0  0
   59.3870   45.0800   36.8820 C   0  0  0  0  0  0  0  0  0  0  0  0
   59.6570   44.3820   39.1930 O   0  0  0  0  0  0  0  0  0  0  0  0
   60.2210   45.2700   38.3650 C   0  0  0  0  0  0  0  0  0  0  0  0
  2  3  1  0
  2  6  1  0
  3  6  1  0
  3  4  1  0
  4  7  1  0
  6  5  1  0
  7  1  1  0
  7  9  1  0
  9  8  1  0
M  END
$$$$

     RDKit          3D

 11 10  0  0  0  0  0  0  0  0999 V2000
   62.2440   44.1630   37.2280 O   0  0  0  0  0  0  0  0  0  0  0  0
   62.8520   46.2760   37.7080 O   0  0  0  0  0  0  0  0  0  0  0  0
   68.9320   44.8730   38.9440 C   0  0  0  0  0  0  0  0  0  0  0  0
   65.0700   44.4690   37.8490 C   0  0  0  0  0  0  0  0  0  0  0  0
   68.0970   45.5230   37.6020 S   0  0  0  0  0  0  0  0  0  0  0  0
   66.5940   44.6000   37.8740 C   0  0  0  0  0  0  0  0  0  0  0  0
   63.0590   45.0350   37.0210 C   0  0  0  0  0  0  0  0  0  0  0  0
   69.2610   43.8470   39.1330 O   0  0  0  0  0  0  0  0  0  0  0  0
   64.5050   45.0400   36.6940 C   0  0  0  0  0  0  0  0  0  0  0  0
   69.8040   45.6590   39.8020 C   0  0  0  0  0  0  0  0  0  0  0  0
   64.7630   45.0090   35.4240 N   0  0  0  0  0  0  0  0  0  0  0  0
  3  8  2  0
  3 10  1  0
  4  6  1  0
  5  6  1  0
  5  3  1  0
  7  1  2  0
  7  2  1  0
  9  7  1  0
  9  4  1  0
 11  9  2  0
M  END
$$$$

     RDKit          3D

 32 34  0  0  0  0  0  0  0  0999 V2000
   61.8400   47.1690   39.2680 C   0  0  0  0  0  0  0  0  0  0  0  0
   62.8810   47.5350   40.4240 C   0  0  0  0  0  0  0  0  0  0  0  0
   63.4730   45.8120   32.5720 C   0  0  0  0  0  0  0  0  0  0  0  0
   67.1610   43.8180   31.1570 C   0  0  0  0  0  0  0  0  0  0  0  0
   62.8390   46.3930   41.4440 C   0  0  0  0  0  0  0  0  0  0  0  0
   61.5690   48.6120   42.2970 N   0  0  0  0  0  0  0  0  0  0  0  0
   63.8880   43.4480   30.0550 N   0  0  0  0  0  0  0  0  0  0  0  0
   65.9000   44.2160   31.5300 C   0  0  0  0  0  0  0  0  0  0  0  0
   64.1440   43.4030   28.6360 C   0  0  0  0  0  0  0  0  0  0  0  0
   62.1320   47.8920   37.9830 C   0  0  0  0  0  0  0  0  0  0  0  0
   62.6250   46.6510   35.9710 N   0  0  0  0  0  0  0  0  0  0  0  0
   61.7250   49.7950   40.5130 C   0  0  0  0  0  0  0  0  0  0  0  0
   61.9990   47.9160   43.4070 C   0  0  0  0  0  0  0  0  0  0  0  0
   68.0980   44.5890   31.7170 O   0  0  0  0  0  0  0  0  0  0  0  0
   69.5060   44.3710   31.5210 C   0  0  0  0  0  0  0  0  0  0  0  0
   67.4830   42.7710   30.3170 N   0  0  0  0  0  0  0  0  0  0  0  0
   62.8300   46.4470   34.8890 C   0  0  0  0  0  0  0  0  0  0  0  0
   61.9160   45.5510   43.6010 O   0  0  0  0  0  0  0  0  0  0  0  0
   69.5490   41.8610   31.4600 C   0  0  0  0  0  0  0  0  0  0  0  0
   68.3940   41.9940   30.7780 C   0  0  0  0  0  0  0  0  0  0  0  0
   62.7390   46.6070   42.9670 C   0  0  0  0  0  0  0  0  0  0  0  0
   63.3780   42.2010   28.0640 C   0  0  0  0  0  0  0  0  0  0  0  0
   63.7320   44.5770   30.6340 C   0  0  0  0  0  0  0  0  0  0  0  0
   65.6160   42.2730   27.1040 N   0  0  0  0  0  0  0  0  0  0  0  0
   62.4700   48.7780   41.2400 C   0  0  0  0  0  0  0  0  0  0  0  0
   63.9370   46.2140   33.9550 C   0  0  0  0  0  0  0  0  0  0  0  0
   71.3930   43.0280   32.1240 O   0  0  0  0  0  0  0  0  0  0  0  0
   65.4920   42.8970   28.3380 C   0  0  0  0  0  0  0  0  0  0  0  0
   64.6890   45.1310   31.6790 C   0  0  0  0  0  0  0  0  0  0  0  0
   69.9900   43.0750   32.2310 C   0  0  0  0  0  0  0  0  0  0  0  0
   63.2090   47.2430   37.1630 C   0  0  0  0  0  0  0  0  0  0  0  0
   64.4820   41.4530   27.2360 C   0  0  0  0  0  0  0  0  0  0  0  0
  2  1  1  0
  2 25  1  0
  2  5  1  0
  3 26  1  0
  4  8  2  0
  4 14  1  0
  5 21  1  0
  6 13  1  0
  7 23  1  0
  8 29  2  0
  9  7  1  0
 10  1  1  0
 11 31  1  0
 15 14  1  0
 15 30  1  0
 16 20  1  0
 16  4  1  0
 17 11  1  0
 19 30  1  0
 20 19  2  0
 21 13  1  0
 21 18  1  0
 22  9  1  0
 23 29  1  0
 24 32  1  0
 24 28  1  0
 25 12  1  0
 25  6  1  0
 26 17  1  0
 28  9  1  0
 29  3  1  0
 30 27  1  0
 31 10  1  0
 32 22  1  0
M  END
$$$$

     RDKit          3D

  2  1  0  0  0  0  0  0  0  0999 V2000
  -32.5070  129.2200   40.8330 C   0  0  0  0  0  0  0  0  0  0  0  0
  -31.3440  128.6870   40.1640 C   0  0  0  0  0  0  0  0  0  0  0  0
  2  1  1  0
M  END
$$$$

     RDKit          3D

 24 25  0  0  0  0  0  0  0  0999 V2000
   66.2000   43.1360   32.6190 C   0  0  0  0  0  0  0  0  0  0  0  0
   70.8540   43.3490   36.6930 C   0  0  0  0  0  0  0  0  0  0  0  0
   63.2710   46.7030   34.6910 C   0  0  0  0  0  0  0  0  0  0  0  0
   63.2740   46.3570   33.3720 C   0  0  0  0  0  0  0  0  0  0  0  0
   70.7680   42.6290   34.2260 C   0  0  0  0  0  0  0  0  0  0  0  0
   62.8160   44.9600   29.0940 C   0  0  0  0  0  0  0  0  0  0  0  0
   65.0090   43.4530   32.7180 N   0  0  0  0  0  0  0  0  0  0  0  0
   71.2990   42.6480   35.7670 C   0  0  0  0  0  0  0  0  0  0  0  0
   68.4890   42.9000   33.4260 C   0  0  0  0  0  0  0  0  0  0  0  0
   64.1750   44.1870   33.5970 C   0  0  0  0  0  0  0  0  0  0  0  0
   67.2830   43.6720   33.2610 C   0  0  0  0  0  0  0  0  0  0  0  0
   62.4090   43.7390   29.8590 C   0  0  0  0  0  0  0  0  0  0  0  0
   68.6320   42.6680   35.2070 O   0  0  0  0  0  0  0  0  0  0  0  0
   62.1550   44.4860   31.1720 O   0  0  0  0  0  0  0  0  0  0  0  0
   69.8280   43.4550   37.3890 C   0  0  0  0  0  0  0  0  0  0  0  0
   61.9680   46.5650   36.6270 O   0  0  0  0  0  0  0  0  0  0  0  0
   63.3550   44.9110   31.5360 N   0  0  0  0  0  0  0  0  0  0  0  0
   63.5720   45.1510   32.8360 C   0  0  0  0  0  0  0  0  0  0  0  0
   62.6140   44.5190   35.6790 C   0  0  0  0  0  0  0  0  0  0  0  0
   69.2970   42.7950   34.3560 C   0  0  0  0  0  0  0  0  0  0  0  0
   61.6410   42.9010   36.4120 I   0  0  0  0  0  0  0  0  0  0  0  0
   62.5990   45.9440   35.7910 C   0  0  0  0  0  0  0  0  0  0  0  0
   63.5770   44.0450   34.8720 C   0  0  0  0  0  0  0  0  0  0  0  0
   63.5540   45.5000   30.3040 C   0  0  0  0  0  0  0  0  0  0  0  0
  1  7  1  0
  1 11  1  0
  2 15  2  0
  3 22  1  0
  4  3  1  0
  5 20  1  0
  5  8  1  0
  6 12  1  0
  6 24  1  0
  7 10  1  0
  8  2  1  0
  9 20  1  0
 10 23  2  0
 11  9  1  0
 12 14  1  0
 14 17  1  0
 17 18  1  0
 18  4  2  0
 18 10  1  0
 19 22  1  0
 19 21  1  0
 20 13  2  0
 22 16  2  0
 23 19  1  0
 24 17  1  0
M  END
$$$$

     RDKit          3D

 12 12  0  0  0  0  0  0  0  0999 V2000
   65.3980   44.3990   34.2270 C   0  0  0  0  0  0  0  0  0  0  0  0
   66.1580   43.3510   36.4700 Cl  0  0  0  0  0  0  0  0  0  0  0  0
   62.9350   44.9170   36.5930 O   0  0  0  0  0  0  0  0  0  0  0  0
   61.3180   43.3980   34.2650 C   0  0  0  0  0  0  0  0  0  0  0  0
   63.3370   44.4010   35.5360 C   0  0  0  0  0  0  0  0  0  0  0  0
   60.3400   44.2990   33.9080 O   0  0  0  0  0  0  0  0  0  0  0  0
   61.0470   42.2310   34.4730 O   0  0  0  0  0  0  0  0  0  0  0  0
   64.8850   43.5180   33.0090 C   0  0  0  0  0  0  0  0  0  0  0  0
   65.3350   43.7670   31.4830 C   0  0  0  0  0  0  0  0  0  0  0  0
   64.8040   44.1910   35.6390 C   0  0  0  0  0  0  0  0  0  0  0  0
   62.4880   44.1720   34.5620 C   0  0  0  0  0  0  0  0  0  0  0  0
   63.4430   43.8980   33.2040 C   0  0  0  0  0  0  0  0  0  0  0  0
  1 10  1  0
  4  7  1  0
  5 10  1  0
  5  3  2  0
  6  4  2  0
  8  9  1  0
  8 12  1  0
  8  1  1  0
 10  2  1  0
 11  4  1  0
 11  5  1  0
 12 11  1  0
M  END
$$$$

     RDKit          3D

  7  6  0  0  0  0  0  0  0  0999 V2000
   58.2170   48.5680   32.4650 O   0  0  0  0  0  0  0  0  0  0  0  0
   59.6300   46.6120   33.3780 C   0  0  0  0  0  0  0  0  0  0  0  0
   58.4600   46.2240   33.1840 N   0  0  0  0  0  0  0  0  0  0  0  0
   60.6840   47.0720   32.2170 C   0  0  0  0  0  0  0  0  0  0  0  0
   60.2890   48.2030   31.3520 C   0  0  0  0  0  0  0  0  0  0  0  0
   60.8650   48.0650   29.8980 C   0  0  0  0  0  0  0  0  0  0  0  0
   58.8020   48.3620   31.3590 C   0  0  0  0  0  0  0  0  0  0  0  0
  3  2  2  0
  4  2  1  0
  5  6  1  0
  5  7  1  0
  5  4  1  0
  7  1  2  0
M  END
$$$$

     RDKit          3D

 12 13  0  0  0  0  0  0  0  0999 V2000
   68.9380   44.2810   41.5310 C   0  0  0  0  0  0  0  0  0  0  0  0
   68.7000   47.2180   41.1840 C   0  0  0  0  0  0  0  0  0  0  0  0
   64.6890   48.1740   40.5520 N   0  0  0  0  0  0  0  0  0  0  0  0
   68.6210   45.7020   41.0170 C   0  0  0  0  0  0  0  0  0  0  0  0
   66.3800   46.4620   41.0160 C   0  0  0  0  0  0  0  0  0  0  0  0
   70.8870   46.6870   40.0570 C   0  0  0  0  0  0  0  0  0  0  0  0
   72.0020   46.2110   40.1540 O   0  0  0  0  0  0  0  0  0  0  0  0
   66.9380   46.0230   42.0990 O   0  0  0  0  0  0  0  0  0  0  0  0
   70.0330   43.7350   40.8390 O   0  0  0  0  0  0  0  0  0  0  0  0
   65.8230   47.7230   41.2360 C   0  0  0  0  0  0  0  0  0  0  0  0
   69.4700   46.4280   40.1970 C   0  0  0  0  0  0  0  0  0  0  0  0
   67.2140   47.6100   40.5690 C   0  0  0  0  0  0  0  0  0  0  0  0
  2 12  1  0
  4  2  1  0
  4  1  1  0
  5 10  1  0
  5  8  1  0
  6  7  2  0
  9  1  1  0
 10  3  1  0
 11  6  1  0
 11  4  1  0
 11  2  1  0
 12  5  1  0
 12 10  1  0
M  END
$$$$

     RDKit          3D

 18 20  0  0  0  0  0  0  0  0999 V2000
   67.8620   43.9340   33.2160 N   0  0  0  0  0  0  0  0  0  0  0  0
   64.5170   44.7560   33.5850 C   0  0  0  0  0  0  0  0  0  0  0  0
   70.7080   43.3290   35.2560 C   0  0  0  0  0  0  0  0  0  0  0  0
   68.7650   42.8600   36.4110 C   0  0  0  0  0  0  0  0  0  0  0  0
   68.1620   43.1540   34.8560 C   0  0  0  0  0  0  0  0  0  0  0  0
   61.5780   44.0040   31.3750 C   0  0  0  0  0  0  0  0  0  0  0  0
   60.6950   44.2820   30.7640 O   0  0  0  0  0  0  0  0  0  0  0  0
   63.1650   44.5850   33.3120 N   0  0  0  0  0  0  0  0  0  0  0  0
   71.1230   44.7020   33.6020 C   0  0  0  0  0  0  0  0  0  0  0  0
   62.8050   44.4740   31.8900 C   0  0  0  0  0  0  0  0  0  0  0  0
   70.0820   42.8580   36.3140 C   0  0  0  0  0  0  0  0  0  0  0  0
   66.7780   43.7820   33.7190 C   0  0  0  0  0  0  0  0  0  0  0  0
   68.8650   43.5080   34.1000 C   0  0  0  0  0  0  0  0  0  0  0  0
   71.8470   44.1740   34.9690 N   0  0  0  0  0  0  0  0  0  0  0  0
   66.8850   43.1590   34.7470 N   0  0  0  0  0  0  0  0  0  0  0  0
   70.2790   43.7980   34.3370 C   0  0  0  0  0  0  0  0  0  0  0  0
   65.4690   44.0900   33.1260 C   0  0  0  0  0  0  0  0  0  0  0  0
   63.5700   45.5020   31.0370 C   0  0  0  0  0  0  0  0  0  0  0  0
  1 12  2  0
  1 13  1  0
  3 11  1  0
  5  4  1  0
  6 10  1  0
  7  6  2  0
  8  2  1  0
  9 16  1  0
  9 14  1  0
 10 18  1  0
 10  8  1  0
 11  4  2  0
 12 15  1  0
 13 16  1  0
 13  5  2  0
 14  3  1  0
 15  5  1  0
 16  3  2  0
 17  2  1  0
 17 12  1  0
M  END
$$$$

     RDKit          3D

 19 20  0  0  0  0  0  0  0  0999 V2000
   64.2700   42.5830   28.5740 C   0  0  0  0  0  0  0  0  0  0  0  0
   67.9490   42.5140   34.2360 C   0  0  0  0  0  0  0  0  0  0  0  0
   69.5470   42.9250   37.3350 C   0  0  0  0  0  0  0  0  0  0  0  0
   68.8810   44.5800   38.8830 C   0  0  0  0  0  0  0  0  0  0  0  0
   69.1650   44.5700   40.0680 O   0  0  0  0  0  0  0  0  0  0  0  0
   63.3480   43.5950   30.8110 N   0  0  0  0  0  0  0  0  0  0  0  0
   64.6950   42.4970   32.6520 O   0  0  0  0  0  0  0  0  0  0  0  0
   68.7050   43.0720   35.1340 N   0  0  0  0  0  0  0  0  0  0  0  0
   70.2690   43.8120   38.2160 C   0  0  0  0  0  0  0  0  0  0  0  0
   69.1470   42.8960   33.7150 C   0  0  0  0  0  0  0  0  0  0  0  0
   67.9260   44.7650   38.1520 O   0  0  0  0  0  0  0  0  0  0  0  0
   63.8630   44.0090   28.7820 O   0  0  0  0  0  0  0  0  0  0  0  0
   65.7560   42.8080   27.8620 C   0  0  0  0  0  0  0  0  0  0  0  0
   65.3790   43.2110   31.9670 C   0  0  0  0  0  0  0  0  0  0  0  0
   66.8200   43.3100   33.9700 C   0  0  0  0  0  0  0  0  0  0  0  0
   70.0350   43.2930   35.8710 C   0  0  0  0  0  0  0  0  0  0  0  0
   65.4680   43.3440   30.6520 N   0  0  0  0  0  0  0  0  0  0  0  0
   66.6690   43.7500   32.6310 C   0  0  0  0  0  0  0  0  0  0  0  0
   64.3390   43.1250   29.9430 C   0  0  0  0  0  0  0  0  0  0  0  0
  1 13  1  0
  1 12  1  0
  1 19  1  0
  2 15  1  0
  2  8  1  0
  3  9  1  0
  4  5  1  0
  8 16  1  0
  9  4  1  0
 10  2  1  0
 10  8  1  0
 11  4  2  0
 12 19  1  0
 14 18  1  0
 14  7  2  0
 16  3  1  0
 17 14  1  0
 18 15  1  0
 19 17  1  0
 19  6  1  0
M  END
$$$$
