
     RDKit          3D

 11 12  0  0  0  0  0  0  0  0999 V2000
   68.6520   40.8240   39.5180 O   0  0  0  0  0  0  0  0  0  0  0  0
   68.1170   42.5570   37.6560 C   0  0  0  0  0  0  0  0  0  0  0  0
   66.9780   43.4100   37.1080 C   0  0  0  0  0  0  0  0  0  0  0  0
   69.1680   40.5140   36.7330 C   0  0  0  0  0  0  0  0  0  0  0  0
   68.5200   43.1870   38.9660 C   0  0  0  0  0  0  0  0  0  0  0  0
   66.8600   43.6750   35.6460 C   0  0  0  0  0  0  0  0  0  0  0  0
   68.5590   41.9350   38.8760 C   0  0  0  0  0  0  0  0  0  0  0  0
   68.9040   43.0980   40.3150 O   0  0  0  0  0  0  0  0  0  0  0  0
   67.5050   44.3390   39.1840 C   0  0  0  0  0  0  0  0  0  0  0  0
   68.4150   41.6570   36.5580 O   0  0  0  0  0  0  0  0  0  0  0  0
   66.5220   44.2080   38.0000 C   0  0  0  0  0  0  0  0  0  0  0  0
  2 10  1  0
  2  7  1  0
  2  5  1  0
  3  6  1  0
  3  2  1  0
  3 11  1  0
  5  9  1  0
  5  8  1  0
  7  5  1  0
  7  1  1  0
 10  4  1  0
 11  9  1  0
M  END
$$$$

     RDKit          3D

 10 10  0  0  0  0  0  0  0  0999 V2000
   66.8330   44.2580   38.2480 C   0  0  0  0  0  0  0  0  0  0  0  0
   70.9540   41.9060   37.6650 C   0  0  0  0  0  0  0  0  0  0  0  0
   69.2930   43.7690   38.2340 C   0  0  0  0  0  0  0  0  0  0  0  0
   69.6330   42.3850   38.1540 C   0  0  0  0  0  0  0  0  0  0  0  0
   67.4680   44.9490   35.9780 C   0  0  0  0  0  0  0  0  0  0  0  0
   68.7070   45.2730   37.8430 N   0  0  0  0  0  0  0  0  0  0  0  0
   68.5310   40.9740   38.1170 S   0  0  0  0  0  0  0  0  0  0  0  0
   68.0610   44.3470   37.3100 C   0  0  0  0  0  0  0  0  0  0  0  0
   66.7350   42.9240   38.8550 C   0  0  0  0  0  0  0  0  0  0  0  0
   67.0350   41.6760   38.3540 C   0  0  0  0  0  0  0  0  0  0  0  0
  1  9  1  0
  4  2  1  0
  4  3  1  0
  7  4  1  0
  7 10  1  0
  8  5  1  0
  8  6  1  0
  8  3  1  0
  8  1  1  0
 10  9  1  0
M  END
$$$$

     RDKit          3D

  8  7  0  0  0  0  0  0  0  0999 V2000
   67.4830   41.2610   35.8330 O   0  0  0  0  0  0  0  0  0  0  0  0
   67.9720   42.1280   36.8840 C   0  0  0  0  0  0  0  0  0  0  0  0
   67.1910   43.3380   36.6840 C   0  0  0  0  0  0  0  0  0  0  0  0
   66.6690   44.1350   37.5830 C   0  0  0  0  0  0  0  0  0  0  0  0
   66.9220   45.4520   38.1800 C   0  0  0  0  0  0  0  0  0  0  0  0
   66.7840   41.6150   38.9540 O   0  0  0  0  0  0  0  0  0  0  0  0
   68.3500   40.1320   38.1450 O   0  0  0  0  0  0  0  0  0  0  0  0
   67.9590   41.5070   38.1860 C   0  0  0  0  0  0  0  0  0  0  0  0
  2  1  1  0
  2  8  1  0
  3  2  1  0
  3  4  1  0
  4  5  1  0
  7  8  1  0
  8  6  1  0
M  END
$$$$

     RDKit          3D

 17 18  0  0  0  0  0  0  0  0999 V2000
   69.3540   43.7310   39.9590 C   0  0  0  0  0  0  0  0  0  0  0  0
   68.2530   43.0110   39.2790 N   0  0  0  0  0  0  0  0  0  0  0  0
   65.3610   46.3070   37.1750 N   0  0  0  0  0  0  0  0  0  0  0  0
   67.5660   38.8120   37.6050 F   0  0  0  0  0  0  0  0  0  0  0  0
   68.7160   40.4550   36.6810 F   0  0  0  0  0  0  0  0  0  0  0  0
   66.2320   43.0980   38.2210 C   0  0  0  0  0  0  0  0  0  0  0  0
   67.3760   43.7870   38.7130 C   0  0  0  0  0  0  0  0  0  0  0  0
   67.5450   40.0350   37.2510 C   0  0  0  0  0  0  0  0  0  0  0  0
   64.3110   43.7340   36.8060 N   0  0  0  0  0  0  0  0  0  0  0  0
   67.0710   45.1840   38.5220 C   0  0  0  0  0  0  0  0  0  0  0  0
   67.4740   41.3890   40.6560 O   0  0  0  0  0  0  0  0  0  0  0  0
   66.5890   40.2970   36.3030 F   0  0  0  0  0  0  0  0  0  0  0  0
   66.2630   41.9350   38.2850 C   0  0  0  0  0  0  0  0  0  0  0  0
   67.3400   41.0500   38.3810 N   0  0  0  0  0  0  0  0  0  0  0  0
   65.3090   44.0110   37.5820 C   0  0  0  0  0  0  0  0  0  0  0  0
   65.8480   45.2600   37.8440 C   0  0  0  0  0  0  0  0  0  0  0  0
   67.9500   41.7570   39.4680 C   0  0  0  0  0  0  0  0  0  0  0  0
  2 17  1  0
  2  1  1  0
  3 16  1  0
  5  8  1  0
  6 13  1  0
  6  7  1  0
  7 10  1  0
  7  2  1  0
  8  4  1  0
  8 14  1  0
  9 15  1  0
 12  8  1  0
 13 14  1  0
 14 17  1  0
 15 16  1  0
 15  6  2  0
 16 10  2  0
 17 11  2  0
M  END
$$$$

     RDKit          3D

 11 11  0  0  0  0  0  0  0  0999 V2000
   65.8730   43.4760   36.9860 O   0  0  0  0  0  0  0  0  0  0  0  0
   67.4850   42.6950   35.4210 O   0  0  0  0  0  0  0  0  0  0  0  0
   70.5290   43.4700   37.9810 C   0  0  0  0  0  0  0  0  0  0  0  0
   69.1940   45.2860   36.9930 C   0  0  0  0  0  0  0  0  0  0  0  0
   70.3020   44.8710   38.0810 C   0  0  0  0  0  0  0  0  0  0  0  0
   68.0220   44.8540   37.5970 N   0  0  0  0  0  0  0  0  0  0  0  0
   69.3720   42.6050   37.5110 C   0  0  0  0  0  0  0  0  0  0  0  0
   68.0410   43.3000   37.5340 C   0  0  0  0  0  0  0  0  0  0  0  0
   67.4910   44.9510   38.9920 C   0  0  0  0  0  0  0  0  0  0  0  0
   67.0970   46.4320   38.9540 N   0  0  0  0  0  0  0  0  0  0  0  0
   66.9900   43.1220   36.7730 C   0  0  0  0  0  0  0  0  0  0  0  0
  2 11  2  0
  3  5  1  0
  4  6  1  0
  4  5  1  0
  6  9  1  0
  7  8  1  0
  7  3  1  0
  8 11  1  0
  8  6  1  0
 10  9  1  0
 11  1  1  0
M  END
$$$$

     RDKit          3D

 17 17  0  0  0  0  0  0  0  0999 V2000
   66.2850   42.1470   38.8430 O   0  0  0  0  0  0  0  0  0  0  0  0
   68.3540   47.1750   38.0920 N   0  0  0  0  0  0  0  0  0  0  0  0
   67.2450   40.6210   40.2640 O   0  0  0  0  0  0  0  0  0  0  0  0
   68.9520   44.6720   36.3350 C   0  0  0  0  0  0  0  0  0  0  0  0
   67.2740   41.6610   39.4910 C   0  0  0  0  0  0  0  0  0  0  0  0
   69.6240   43.8520   35.4120 C   0  0  0  0  0  0  0  0  0  0  0  0
   67.6360   46.4520   37.2750 C   0  0  0  0  0  0  0  0  0  0  0  0
   68.1020   45.8380   35.9770 C   0  0  0  0  0  0  0  0  0  0  0  0
   69.2940   41.6880   38.1890 C   0  0  0  0  0  0  0  0  0  0  0  0
   66.4160   46.1110   37.5830 O   0  0  0  0  0  0  0  0  0  0  0  0
   68.7940   43.8370   37.2530 C   0  0  0  0  0  0  0  0  0  0  0  0
   69.5270   47.6520   37.7190 C   0  0  0  0  0  0  0  0  0  0  0  0
   68.9190   42.5440   37.0580 C   0  0  0  0  0  0  0  0  0  0  0  0
   68.6550   42.1210   39.3500 O   0  0  0  0  0  0  0  0  0  0  0  0
   70.4430   46.5980   37.9900 C   0  0  0  0  0  0  0  0  0  0  0  0
   69.9950   42.5270   36.1050 N   0  0  0  0  0  0  0  0  0  0  0  0
   71.1920   44.7400   35.1820 S   0  0  0  0  0  0  0  0  0  0  0  0
  1  5  2  0
  4  8  1  0
  4 11  1  0
  5  3  1  0
  6 17  1  0
  6 16  1  0
  6  4  1  0
  7 10  2  0
  7  2  1  0
  8  7  1  0
  9 14  1  0
 12 15  1  0
 12  2  1  0
 13 11  1  0
 13  9  1  0
 14  5  1  0
 16 13  1  0
M  END
$$$$

     RDKit          3D

  9  8  0  0  0  0  0  0  0  0999 V2000
   67.4540   44.1620   37.8040 C   0  0  0  0  0  0  0  0  0  0  0  0
   68.9630   40.9120   36.8460 O   0  0  0  0  0  0  0  0  0  0  0  0
   70.1100   42.5980   38.0500 C   0  0  0  0  0  0  0  0  0  0  0  0
   68.2350   45.2230   38.4700 C   0  0  0  0  0  0  0  0  0  0  0  0
   66.9600   42.8170   39.8960 C   0  0  0  0  0  0  0  0  0  0  0  0
   69.6230   44.8800   38.6710 O   0  0  0  0  0  0  0  0  0  0  0  0
   66.4920   43.6550   38.9360 C   0  0  0  0  0  0  0  0  0  0  0  0
   67.6430   43.0020   36.9890 C   0  0  0  0  0  0  0  0  0  0  0  0
   68.7760   42.0960   37.5180 C   0  0  0  0  0  0  0  0  0  0  0  0
  1  8  1  0
  1  4  1  0
  1  7  1  0
  2  9  1  0
  4  6  1  0
  7  5  2  0
  8  9  1  0
  9  3  1  0
M  END
$$$$

     RDKit          3D

  9  8  0  0  0  0  0  0  0  0999 V2000
   66.3370   43.0600   38.7200 O   0  0  0  0  0  0  0  0  0  0  0  0
   65.7050   43.3820   36.2330 N   0  0  0  0  0  0  0  0  0  0  0  0
   69.8250   47.0760   38.0800 O   0  0  0  0  0  0  0  0  0  0  0  0
   69.0840   45.1690   37.3050 O   0  0  0  0  0  0  0  0  0  0  0  0
   68.8560   46.3200   37.6750 C   0  0  0  0  0  0  0  0  0  0  0  0
   67.0560   43.8080   36.5920 C   0  0  0  0  0  0  0  0  0  0  0  0
   67.0640   44.0730   38.0820 C   0  0  0  0  0  0  0  0  0  0  0  0
   68.7360   45.4370   36.3600 C   0  0  0  0  0  0  0  0  0  0  0  0
   67.2890   45.1200   36.0980 O   0  0  0  0  0  0  0  0  0  0  0  0
  4  5  1  0
  5  3  1  0
  6  2  1  0
  6  7  1  0
  7  1  1  0
  8  4  1  0
  9  8  1  0
  9  6  1  0
M  END
$$$$

     RDKit          3D

 20 21  0  0  0  0  0  0  0  0999 V2000
   68.2070   42.6930   37.6940 C   0  0  0  0  0  0  0  0  0  0  0  0
   67.6660   44.9780   37.0110 C   0  0  0  0  0  0  0  0  0  0  0  0
   69.2550   41.6960   37.5770 O   0  0  0  0  0  0  0  0  0  0  0  0
   69.7820   44.1220   36.5210 O   0  0  0  0  0  0  0  0  0  0  0  0
   70.8670   39.3680   39.7570 C   0  0  0  0  0  0  0  0  0  0  0  0
   67.8700   41.4530   39.5930 O   0  0  0  0  0  0  0  0  0  0  0  0
   69.9910   41.5300   38.5900 C   0  0  0  0  0  0  0  0  0  0  0  0
   65.4430   44.2680   37.4570 O   0  0  0  0  0  0  0  0  0  0  0  0
   67.6510   42.7530   38.9530 C   0  0  0  0  0  0  0  0  0  0  0  0
   68.7060   44.0740   37.5940 C   0  0  0  0  0  0  0  0  0  0  0  0
   65.7830   43.5450   39.6960 O   0  0  0  0  0  0  0  0  0  0  0  0
   67.9930   47.2550   37.5570 O   0  0  0  0  0  0  0  0  0  0  0  0
   64.5210   45.1090   36.9410 C   0  0  0  0  0  0  0  0  0  0  0  0
   71.0940   39.4790   38.3780 O   0  0  0  0  0  0  0  0  0  0  0  0
   69.3360   41.3140   39.8980 C   0  0  0  0  0  0  0  0  0  0  0  0
   66.9630   44.0710   39.2160 C   0  0  0  0  0  0  0  0  0  0  0  0
   67.8340   46.3210   36.4330 C   0  0  0  0  0  0  0  0  0  0  0  0
   66.5820   44.8950   37.9950 C   0  0  0  0  0  0  0  0  0  0  0  0
   71.6430   38.5830   40.3780 O   0  0  0  0  0  0  0  0  0  0  0  0
   69.8020   40.0350   40.4930 C   0  0  0  0  0  0  0  0  0  0  0  0
  1  3  1  0
  1  9  1  0
  2 17  1  0
  2 10  1  0
  2 18  1  0
  3  7  1  0
  5 19  1  0
  5 20  1  0
  6 15  1  0
  7 15  1  0
  9 16  1  0
  9  6  1  0
 10  4  1  0
 10  1  1  0
 13  8  1  0
 14  5  2  0
 15 20  1  0
 16 11  1  0
 17 12  1  0
 18  8  1  0
 18 16  1  0
M  END
$$$$

     RDKit          3D

  8  7  0  0  0  0  0  0  0  0999 V2000
   67.7620   44.9610   37.4270 C   0  0  0  0  0  0  0  0  0  0  0  0
   66.7310   43.4910   37.6110 C   0  0  0  0  0  0  0  0  0  0  0  0
   68.8580   44.2290   39.8550 O   0  0  0  0  0  0  0  0  0  0  0  0
   65.8480   43.3890   36.7980 O   0  0  0  0  0  0  0  0  0  0  0  0
   70.1130   45.1470   38.2800 O   0  0  0  0  0  0  0  0  0  0  0  0
   68.8250   44.6690   38.5410 C   0  0  0  0  0  0  0  0  0  0  0  0
   67.0350   42.6620   38.4890 O   0  0  0  0  0  0  0  0  0  0  0  0
   66.8120   45.9230   37.4410 N   0  0  0  0  0  0  0  0  0  0  0  0
  1  8  1  0
  1  2  1  0
  1  6  1  0
  2  7  1  0
  4  2  2  0
  5  6  2  0
  6  3  1  0
M  END
$$$$

     RDKit          3D

 13 14  0  0  0  0  0  0  0  0999 V2000
   69.6550   47.3820   37.5990 O   0  0  0  0  0  0  0  0  0  0  0  0
   65.4580   45.0610   37.1510 C   0  0  0  0  0  0  0  0  0  0  0  0
   70.0160   43.9400   38.7850 O   0  0  0  0  0  0  0  0  0  0  0  0
   66.9970   43.5890   35.4670 C   0  0  0  0  0  0  0  0  0  0  0  0
   67.6170   43.7950   38.3550 C   0  0  0  0  0  0  0  0  0  0  0  0
   69.1450   45.1580   36.9220 C   0  0  0  0  0  0  0  0  0  0  0  0
   68.4480   47.4410   36.3520 O   0  0  0  0  0  0  0  0  0  0  0  0
   69.0190   44.0510   37.8620 C   0  0  0  0  0  0  0  0  0  0  0  0
   67.6090   43.0870   39.6010 C   0  0  0  0  0  0  0  0  0  0  0  0
   68.4550   42.2970   39.9740 O   0  0  0  0  0  0  0  0  0  0  0  0
   66.6580   44.9020   36.2110 C   0  0  0  0  0  0  0  0  0  0  0  0
   69.1740   46.6000   36.6090 C   0  0  0  0  0  0  0  0  0  0  0  0
   67.6960   44.9660   37.4010 C   0  0  0  0  0  0  0  0  0  0  0  0
  4 11  1  0
  5  9  1  0
  6 12  1  0
  6 13  1  0
  6  8  1  0
  7 12  1  0
  8  5  1  0
  8  3  1  0
  9 10  2  0
 11  2  1  0
 12  1  1  0
 13 11  1  0
 13  8  1  0
 13  5  1  0
M  END
$$$$

     RDKit          3D

  6  5  0  0  0  0  0  0  0  0999 V2000
   68.0830   44.0790   38.4260 C   0  0  0  0  0  0  0  0  0  0  0  0
   67.3160   44.5720   39.3500 O   0  0  0  0  0  0  0  0  0  0  0  0
   68.7620   45.1100   38.2370 C   0  0  0  0  0  0  0  0  0  0  0  0
   68.2570   41.5820   37.4740 C   0  0  0  0  0  0  0  0  0  0  0  0
   68.2200   42.5660   38.3790 C   0  0  0  0  0  0  0  0  0  0  0  0
   68.2720   42.1540   39.6380 O   0  0  0  0  0  0  0  0  0  0  0  0
  1  2  1  0
  3  1  2  0
  4  5  2  0
  5  1  1  0
  5  6  1  0
M  END
$$$$

     RDKit          3D

 12 12  0  0  0  0  0  0  0  0999 V2000
   68.1700   45.8350   37.7420 C   0  0  0  0  0  0  0  0  0  0  0  0
   66.6370   43.0900   38.2590 C   0  0  0  0  0  0  0  0  0  0  0  0
   68.6660   46.5070   38.8340 N   0  0  0  0  0  0  0  0  0  0  0  0
   67.0210   44.2510   38.9070 C   0  0  0  0  0  0  0  0  0  0  0  0
   67.8760   39.9590   37.0010 O   0  0  0  0  0  0  0  0  0  0  0  0
   65.6530   43.5020   36.2170 O   0  0  0  0  0  0  0  0  0  0  0  0
   67.7580   44.1230   40.0120 O   0  0  0  0  0  0  0  0  0  0  0  0
   67.1800   41.1560   37.2420 C   0  0  0  0  0  0  0  0  0  0  0  0
   66.9560   43.3300   36.7340 C   0  0  0  0  0  0  0  0  0  0  0  0
   67.0350   45.3440   38.1730 C   0  0  0  0  0  0  0  0  0  0  0  0
   67.5490   41.9160   38.5020 C   0  0  0  0  0  0  0  0  0  0  0  0
   67.2920   42.0630   36.1010 C   0  0  0  0  0  0  0  0  0  0  0  0
  1 10  1  0
  1  3  1  0
  2 11  1  0
  2  4  1  0
  4  7  1  0
  8  5  1  0
  8 11  1  0
  9  6  1  0
  9  2  1  0
 10  4  1  0
 12  9  1  0
 12  8  1  0
M  END
$$$$

     RDKit          3D

 14 16  0  0  0  0  0  0  0  0999 V2000
   70.8960   38.4270   37.9940 O   0  0  0  0  0  0  0  0  0  0  0  0
   67.7540   43.2520   38.0070 C   0  0  0  0  0  0  0  0  0  0  0  0
   68.7450   43.8070   38.6960 C   0  0  0  0  0  0  0  0  0  0  0  0
   69.3820   40.0090   38.9810 C   0  0  0  0  0  0  0  0  0  0  0  0
   68.9330   42.4110   38.1050 C   0  0  0  0  0  0  0  0  0  0  0  0
   69.4890   41.5080   39.1590 C   0  0  0  0  0  0  0  0  0  0  0  0
   69.7410   42.5760   36.9900 F   0  0  0  0  0  0  0  0  0  0  0  0
   70.6680   41.9470   39.7750 N   0  0  0  0  0  0  0  0  0  0  0  0
   70.6280   39.3540   38.8340 C   0  0  0  0  0  0  0  0  0  0  0  0
   71.6070   39.6000   39.7460 C   0  0  0  0  0  0  0  0  0  0  0  0
   70.7270   43.3120   39.8840 C   0  0  0  0  0  0  0  0  0  0  0  0
   69.7990   44.1990   39.5960 N   0  0  0  0  0  0  0  0  0  0  0  0
   72.6690   41.4070   40.6180 O   0  0  0  0  0  0  0  0  0  0  0  0
   71.6390   41.0590   40.1260 C   0  0  0  0  0  0  0  0  0  0  0  0
  1  9  2  0
  2  5  1  0
  3  2  1  0
  3 12  1  0
  5  7  1  0
  5  3  1  0
  5  6  1  0
  6  4  1  0
  6  8  1  0
  8 11  1  0
  8 14  1  0
  9  4  1  0
  9 10  1  0
 10 14  1  0
 12 11  1  0
 14 13  2  0
M  END
$$$$

     RDKit          3D

 18 20  0  0  0  0  0  0  0  0999 V2000
   70.8990   42.1420   40.8060 C   0  0  0  0  0  0  0  0  0  0  0  0
   64.7400   44.9170   36.3470 C   0  0  0  0  0  0  0  0  0  0  0  0
   69.2310   41.4690   42.3820 C   0  0  0  0  0  0  0  0  0  0  0  0
   67.2280   45.9120   36.2180 N   0  0  0  0  0  0  0  0  0  0  0  0
   67.6980   45.5810   37.5670 C   0  0  0  0  0  0  0  0  0  0  0  0
   72.8310   41.0590   39.8820 C   0  0  0  0  0  0  0  0  0  0  0  0
   68.5200   42.0730   38.8650 C   0  0  0  0  0  0  0  0  0  0  0  0
   65.7220   45.8640   36.7300 N   0  0  0  0  0  0  0  0  0  0  0  0
   66.3180   43.8780   38.3780 C   0  0  0  0  0  0  0  0  0  0  0  0
   67.6260   44.0890   37.5670 C   0  0  0  0  0  0  0  0  0  0  0  0
   70.8990   39.8210   40.5240 O   0  0  0  0  0  0  0  0  0  0  0  0
   69.2680   42.2120   37.9670 O   0  0  0  0  0  0  0  0  0  0  0  0
   68.5710   41.4650   40.0750 O   0  0  0  0  0  0  0  0  0  0  0  0
   71.4870   40.9430   40.3880 C   0  0  0  0  0  0  0  0  0  0  0  0
   65.2340   44.7360   37.7190 C   0  0  0  0  0  0  0  0  0  0  0  0
   68.7650   43.4250   38.3330 C   0  0  0  0  0  0  0  0  0  0  0  0
   73.7650   40.4370   40.8230 N   0  0  0  0  0  0  0  0  0  0  0  0
   69.3920   42.1480   41.0330 C   0  0  0  0  0  0  0  0  0  0  0  0
  1 18  1  0
  4  8  1  0
  4  5  1  0
  6 14  1  0
  6 17  1  0
  7 13  1  0
  8  2  1  0
  8 15  1  0
 10  5  1  0
 10 16  1  0
 10  9  1  0
 12  7  1  0
 13 18  1  0
 14 11  2  0
 14  1  1  0
 15  2  1  0
 15  9  1  0
 16 12  1  0
 16  7  1  0
 18  3  1  0
M  END
$$$$

     RDKit          3D

 16 17  0  0  0  0  0  0  0  0999 V2000
   65.9530   43.3340   37.3180 C   0  0  0  0  0  0  0  0  0  0  0  0
   70.3130   41.8920   39.2730 C   0  0  0  0  0  0  0  0  0  0  0  0
   64.8880   44.3570   37.5830 O   0  0  0  0  0  0  0  0  0  0  0  0
   71.4890   41.8220   39.8420 O   0  0  0  0  0  0  0  0  0  0  0  0
   68.8340   44.8450   38.1850 C   0  0  0  0  0  0  0  0  0  0  0  0
   69.2410   40.7820   39.6940 C   0  0  0  0  0  0  0  0  0  0  0  0
   67.9840   41.6090   39.8880 C   0  0  0  0  0  0  0  0  0  0  0  0
   67.9370   42.6490   38.8000 C   0  0  0  0  0  0  0  0  0  0  0  0
   66.5880   43.1090   38.5890 C   0  0  0  0  0  0  0  0  0  0  0  0
   70.0850   42.5250   37.9820 C   0  0  0  0  0  0  0  0  0  0  0  0
   71.0460   42.6300   37.0010 O   0  0  0  0  0  0  0  0  0  0  0  0
   66.1340   43.5830   39.6680 O   0  0  0  0  0  0  0  0  0  0  0  0
   68.8060   43.3000   37.6910 C   0  0  0  0  0  0  0  0  0  0  0  0
   68.1670   43.3260   36.2790 C   0  0  0  0  0  0  0  0  0  0  0  0
   66.7970   44.0380   36.2320 C   0  0  0  0  0  0  0  0  0  0  0  0
   65.8750   45.0940   35.6100 C   0  0  0  0  0  0  0  0  0  0  0  0
  1  3  1  0
  1  9  1  0
  2  6  1  0
  2  4  1  0
  6  7  1  0
  8  7  1  0
  9  8  1  0
  9 12  2  0
 10 11  1  0
 10  2  1  0
 13 10  1  0
 13  5  1  0
 13  8  1  0
 14 13  1  0
 15 16  1  0
 15 14  1  0
 15  1  1  0
M  END
$$$$

     RDKit          3D

 10  9  0  0  0  0  0  0  0  0999 V2000
   70.7540   44.4790   37.1280 P   0  0  0  0  0  0  0  0  0  0  0  0
   71.6830   44.1410   37.9400 O   0  0  0  0  0  0  0  0  0  0  0  0
   71.1950   43.7360   35.6960 O   0  0  0  0  0  0  0  0  0  0  0  0
   70.9430   46.0500   37.2310 C   0  0  0  0  0  0  0  0  0  0  0  0
   69.5160   42.2200   37.4000 C   0  0  0  0  0  0  0  0  0  0  0  0
   66.8930   43.1880   38.8660 O   0  0  0  0  0  0  0  0  0  0  0  0
   68.3840   41.7890   40.2610 C   0  0  0  0  0  0  0  0  0  0  0  0
   67.7650   42.2030   38.9270 C   0  0  0  0  0  0  0  0  0  0  0  0
   69.2290   43.6820   37.1990 C   0  0  0  0  0  0  0  0  0  0  0  0
   68.1930   41.6490   37.5820 C   0  0  0  0  0  0  0  0  0  0  0  0
  1  9  1  0
  1  4  1  0
  1  2  1  0
  3  1  2  0
  5 10  1  0
  6  8  1  0
  8  7  1  0
  9  5  1  0
 10  8  1  0
M  END
$$$$

     RDKit          3D

 24 26  0  0  0  0  0  0  0  0999 V2000
   65.0050   43.6400   38.0680 O   0  0  0  0  0  0  0  0  0  0  0  0
   70.9540   38.1590   39.5450 C   0  0  0  0  0  0  0  0  0  0  0  0
   70.1520   43.9860   38.2350 O   0  0  0  0  0  0  0  0  0  0  0  0
   70.0310   40.5780   39.4500 C   0  0  0  0  0  0  0  0  0  0  0  0
   66.0700   42.8670   38.3450 C   0  0  0  0  0  0  0  0  0  0  0  0
   69.7840   41.9700   37.5440 O   0  0  0  0  0  0  0  0  0  0  0  0
   68.9710   41.6260   37.0840 C   0  0  0  0  0  0  0  0  0  0  0  0
   69.4640   43.1890   38.5910 C   0  0  0  0  0  0  0  0  0  0  0  0
   67.7670   41.6210   39.2240 C   0  0  0  0  0  0  0  0  0  0  0  0
   67.3600   45.2980   38.7600 C   0  0  0  0  0  0  0  0  0  0  0  0
   66.1760   46.0040   38.1330 C   0  0  0  0  0  0  0  0  0  0  0  0
   72.8820   39.8740   40.5210 F   0  0  0  0  0  0  0  0  0  0  0  0
   68.2720   43.0590   39.3610 C   0  0  0  0  0  0  0  0  0  0  0  0
   66.3020   41.6680   38.7190 C   0  0  0  0  0  0  0  0  0  0  0  0
   71.1530   41.3000   40.2090 C   0  0  0  0  0  0  0  0  0  0  0  0
   63.1010   45.4450   36.6760 N   0  0  0  0  0  0  0  0  0  0  0  0
   71.7230   40.4690   42.2770 F   0  0  0  0  0  0  0  0  0  0  0  0
   71.7270   40.2490   41.0270 C   0  0  0  0  0  0  0  0  0  0  0  0
   63.8370   45.4700   37.5370 N   0  0  0  0  0  0  0  0  0  0  0  0
   67.2950   43.8410   38.5310 C   0  0  0  0  0  0  0  0  0  0  0  0
   69.6200   39.7050   40.3200 O   0  0  0  0  0  0  0  0  0  0  0  0
   64.9530   45.0800   38.0600 C   0  0  0  0  0  0  0  0  0  0  0  0
   69.1260   41.2140   39.1870 N   0  0  0  0  0  0  0  0  0  0  0  0
   70.8260   39.0680   40.9770 C   0  0  0  0  0  0  0  0  0  0  0  0
  1  5  1  0
  3  8  2  0
  4 23  1  0
  4 15  1  0
  4 21  1  0
  5 20  1  0
  5 14  1  0
  6  8  1  0
  7  6  1  0
  9 23  1  0
  9 13  1  0
 11 10  1  0
 12 18  1  0
 13  8  1  0
 14  9  1  0
 15 18  1  0
 16 19  2  0
 18 17  1  0
 20 10  1  0
 20 13  1  0
 21 24  1  0
 22 19  1  0
 22  1  1  0
 22 11  1  0
 24  2  1  0
 24 18  1  0
M  END
$$$$

     RDKit          3D

 25 26  0  0  0  0  0  0  0  0999 V2000
   71.9010   39.8730   38.0310 P   0  0  0  0  0  0  0  0  0  0  0  0
   60.7140   43.9850   39.7280 C   0  0  0  0  0  0  0  0  0  0  0  0
   66.3750   41.5620   38.9690 C   0  0  0  0  0  0  0  0  0  0  0  0
   61.4880   43.1200   38.6540 C   0  0  0  0  0  0  0  0  0  0  0  0
   58.5870   45.2110   40.0090 C   0  0  0  0  0  0  0  0  0  0  0  0
   61.3490   45.7500   41.3170 C   0  0  0  0  0  0  0  0  0  0  0  0
   65.2370   42.4780   37.1260 C   0  0  0  0  0  0  0  0  0  0  0  0
   72.6450   40.1390   39.5860 N   0  0  0  0  0  0  0  0  0  0  0  0
   64.0080   42.1120   38.0110 C   0  0  0  0  0  0  0  0  0  0  0  0
   61.5690   45.0220   40.0350 C   0  0  0  0  0  0  0  0  0  0  0  0
   58.8050   45.5720   41.4750 C   0  0  0  0  0  0  0  0  0  0  0  0
   67.5950   41.0660   36.9430 C   0  0  0  0  0  0  0  0  0  0  0  0
   59.3310   43.9240   39.7670 C   0  0  0  0  0  0  0  0  0  0  0  0
   66.4520   41.6630   37.6140 N   0  0  0  0  0  0  0  0  0  0  0  0
   69.5840   40.9930   38.3100 C   0  0  0  0  0  0  0  0  0  0  0  0
   62.9720   43.2530   38.3050 N   0  0  0  0  0  0  0  0  0  0  0  0
   60.0330   46.4790   41.4210 C   0  0  0  0  0  0  0  0  0  0  0  0
   70.5040   40.2560   38.6120 N   0  0  0  0  0  0  0  0  0  0  0  0
   67.5750   41.4880   39.8080 C   0  0  0  0  0  0  0  0  0  0  0  0
   68.8550   41.8330   37.2670 C   0  0  0  0  0  0  0  0  0  0  0  0
   57.6260   46.2960   42.1560 C   0  0  0  0  0  0  0  0  0  0  0  0
   71.9670   38.1900   37.5240 O   0  0  0  0  0  0  0  0  0  0  0  0
   72.2530   40.5150   36.9380 O   0  0  0  0  0  0  0  0  0  0  0  0
   68.4960   40.4880   39.2700 C   0  0  0  0  0  0  0  0  0  0  0  0
   61.3200   41.7890   39.0660 O   0  0  0  0  0  0  0  0  0  0  0  0
  1 23  2  0
  1 18  1  0
  1  8  1  0
  2  4  1  0
  2 13  1  0
  2 10  1  0
  3 19  1  0
  4 25  1  0
  5 11  1  0
  6 17  1  0
  7 14  1  0
  7  9  1  0
  9 16  1  0
 10  6  1  0
 11 21  1  0
 12 20  1  0
 12 14  1  0
 13  5  1  0
 14  3  1  0
 15 18  1  0
 15 24  1  0
 16  4  1  0
 17 11  1  0
 20 15  1  0
 22  1  1  0
 24 19  1  0
M  END
$$$$

     RDKit          3D

  7  6  0  0  0  0  0  0  0  0999 V2000
   68.0380   44.9540   38.3090 C   0  0  0  0  0  0  0  0  0  0  0  0
   67.8250   46.3200   38.9130 C   0  0  0  0  0  0  0  0  0  0  0  0
   67.7770   47.3750   37.9070 N   0  0  0  0  0  0  0  0  0  0  0  0
   67.1480   41.7270   39.7340 O   0  0  0  0  0  0  0  0  0  0  0  0
   68.1040   43.8180   38.8150 C   0  0  0  0  0  0  0  0  0  0  0  0
   67.6820   42.6610   39.0750 C   0  0  0  0  0  0  0  0  0  0  0  0
   68.0650   42.0400   37.8270 O   0  0  0  0  0  0  0  0  0  0  0  0
  1  5  1  0
  1  2  1  0
  3  2  1  0
  5  6  1  0
  6  4  1  0
  7  6  2  0
M  END
$$$$
