
     RDKit          3D

 13 13  0  0  0  0  0  0  0  0999 V2000
   67.6810   41.4490   36.9860 C   0  0  0  0  0  0  0  0  0  0  0  0
   69.9880   41.1010   37.5800 C   0  0  0  0  0  0  0  0  0  0  0  0
   65.7220   41.8160   34.2430 O   0  0  0  0  0  0  0  0  0  0  0  0
   72.2820   40.8880   38.4000 O   0  0  0  0  0  0  0  0  0  0  0  0
   71.3630   41.4170   37.7620 C   0  0  0  0  0  0  0  0  0  0  0  0
   68.6540   40.7820   37.9500 C   0  0  0  0  0  0  0  0  0  0  0  0
   65.7300   42.4830   36.5850 C   0  0  0  0  0  0  0  0  0  0  0  0
   70.3410   40.0750   36.3190 C   0  0  0  0  0  0  0  0  0  0  0  0
   67.3990   41.4590   35.7570 N   0  0  0  0  0  0  0  0  0  0  0  0
   66.7440   42.2610   37.5400 N   0  0  0  0  0  0  0  0  0  0  0  0
   64.7930   43.2890   36.7770 O   0  0  0  0  0  0  0  0  0  0  0  0
   71.5960   42.4780   37.1430 O   0  0  0  0  0  0  0  0  0  0  0  0
   66.0860   41.7530   35.4190 C   0  0  0  0  0  0  0  0  0  0  0  0
  1 10  1  0
  1  6  1  0
  2  8  1  0
  2  5  1  0
  2  6  1  0
  3 13  2  0
  5  4  1  0
  7 11  2  0
  7 10  1  0
  9  1  2  0
 12  5  2  0
 13  9  1  0
 13  7  1  0
M  END
$$$$

     RDKit          3D

 12 12  0  0  0  0  0  0  0  0999 V2000
   66.5800   42.2500   35.9510 C   0  0  0  0  0  0  0  0  0  0  0  0
   67.4910   41.3010   36.4600 O   0  0  0  0  0  0  0  0  0  0  0  0
   69.4970   40.3510   35.0680 C   0  0  0  0  0  0  0  0  0  0  0  0
   67.5290   39.5320   34.2930 O   0  0  0  0  0  0  0  0  0  0  0  0
   65.5740   44.2900   36.9600 O   0  0  0  0  0  0  0  0  0  0  0  0
   68.1120   43.5200   37.1920 C   0  0  0  0  0  0  0  0  0  0  0  0
   70.7990   39.9160   35.6170 C   0  0  0  0  0  0  0  0  0  0  0  0
   66.5930   43.5220   36.5100 C   0  0  0  0  0  0  0  0  0  0  0  0
   68.7480   41.3820   35.7800 C   0  0  0  0  0  0  0  0  0  0  0  0
   69.1730   42.3520   36.9870 C   0  0  0  0  0  0  0  0  0  0  0  0
   66.2250   42.3550   34.6060 O   0  0  0  0  0  0  0  0  0  0  0  0
   68.7210   39.4590   34.2040 C   0  0  0  0  0  0  0  0  0  0  0  0
  1  2  1  0
  1  8  1  0
  3  7  1  0
  8  5  1  0
  8  6  2  0
  9  3  1  0
  9  2  1  0
  9 10  1  0
 10  6  1  0
 11  1  2  0
 12  4  2  0
 12  3  1  0
M  END
$$$$

     RDKit          3D

 26 27  0  0  0  0  0  0  0  0999 V2000
   65.2450   44.5360   36.1400 C   0  0  0  0  0  0  0  0  0  0  0  0
   69.5000   41.1960   36.1940 C   0  0  0  0  0  0  0  0  0  0  0  0
   70.6750   40.7800   37.1040 C   0  0  0  0  0  0  0  0  0  0  0  0
   60.6100   44.5340   40.3940 C   0  0  0  0  0  0  0  0  0  0  0  0
   68.8080   41.3770   38.4220 C   0  0  0  0  0  0  0  0  0  0  0  0
   67.1840   42.7120   35.3140 C   0  0  0  0  0  0  0  0  0  0  0  0
   62.0920   44.2690   40.7270 C   0  0  0  0  0  0  0  0  0  0  0  0
   63.3320   44.0330   38.5430 C   0  0  0  0  0  0  0  0  0  0  0  0
   66.4610   42.5570   37.5400 N   0  0  0  0  0  0  0  0  0  0  0  0
   68.0110   42.5650   34.2780 O   0  0  0  0  0  0  0  0  0  0  0  0
   59.6510   45.1730   41.4360 C   0  0  0  0  0  0  0  0  0  0  0  0
   74.9360   40.8300   38.1490 C   0  0  0  0  0  0  0  0  0  0  0  0
   70.3380   42.9160   37.5570 C   0  0  0  0  0  0  0  0  0  0  0  0
   70.1150   40.5360   38.4810 C   0  0  0  0  0  0  0  0  0  0  0  0
   72.5500   41.9550   38.0190 O   0  0  0  0  0  0  0  0  0  0  0  0
   75.3950   42.0700   38.7540 O   0  0  0  0  0  0  0  0  0  0  0  0
   67.2390   41.8480   36.5470 C   0  0  0  0  0  0  0  0  0  0  0  0
   62.9460   44.9530   39.6620 C   0  0  0  0  0  0  0  0  0  0  0  0
   64.3440   42.9070   38.7740 C   0  0  0  0  0  0  0  0  0  0  0  0
   71.3310   41.8600   37.3320 C   0  0  0  0  0  0  0  0  0  0  0  0
   64.9900   42.4910   37.4180 C   0  0  0  0  0  0  0  0  0  0  0  0
   60.1400   43.5620   39.3630 N   0  0  0  0  0  0  0  0  0  0  0  0
   65.0600   42.9670   40.0390 O   0  0  0  0  0  0  0  0  0  0  0  0
   73.4400   40.7820   37.9970 C   0  0  0  0  0  0  0  0  0  0  0  0
   68.8480   42.1430   37.0980 C   0  0  0  0  0  0  0  0  0  0  0  0
   64.5290   43.5060   36.3390 C   0  0  0  0  0  0  0  0  0  0  0  0
  1 26  2  0
  2 25  1  0
  3  2  1  0
  3 20  1  0
  3 14  1  0
  4  7  1  0
  4 11  1  0
  5 14  1  0
  8 19  1  0
  8 18  1  0
 10  6  1  0
 12 16  1  0
 17  6  1  0
 17  9  1  0
 18  7  1  0
 19 23  1  0
 20 13  1  0
 20 15  1  0
 21 26  1  0
 21  9  1  0
 21 19  1  0
 22  4  1  0
 24 15  1  0
 24 12  1  0
 25 17  1  0
 25 13  1  0
 25  5  1  0
M  END
$$$$

     RDKit          3D

 25 27  0  0  0  0  0  0  0  0999 V2000
   66.6180   43.0490   35.9220 C   0  0  0  0  0  0  0  0  0  0  0  0
   68.2880   43.4880   37.3820 N   0  0  0  0  0  0  0  0  0  0  0  0
   69.2600   39.1780   46.0820 N   0  0  0  0  0  0  0  0  0  0  0  0
   69.1650   41.2760   44.8180 C   0  0  0  0  0  0  0  0  0  0  0  0
   67.7780   41.5190   37.8770 C   0  0  0  0  0  0  0  0  0  0  0  0
   66.9360   44.4490   35.7750 C   0  0  0  0  0  0  0  0  0  0  0  0
   66.6190   45.4660   35.8450 O   0  0  0  0  0  0  0  0  0  0  0  0
   65.2610   42.7240   35.6510 N   0  0  0  0  0  0  0  0  0  0  0  0
   70.0880   41.1470   43.5910 C   0  0  0  0  0  0  0  0  0  0  0  0
   64.1530   43.6460   35.6480 C   0  0  0  0  0  0  0  0  0  0  0  0
   69.8960   40.4800   45.8650 C   0  0  0  0  0  0  0  0  0  0  0  0
   65.8010   40.5390   35.5090 N   0  0  0  0  0  0  0  0  0  0  0  0
   67.3760   42.0420   36.7110 C   0  0  0  0  0  0  0  0  0  0  0  0
   69.2120   39.4930   42.1410 C   0  0  0  0  0  0  0  0  0  0  0  0
   66.8460   40.7310   36.0660 C   0  0  0  0  0  0  0  0  0  0  0  0
   69.9090   44.1130   39.1530 C   0  0  0  0  0  0  0  0  0  0  0  0
   69.3660   37.1020   45.3760 O   0  0  0  0  0  0  0  0  0  0  0  0
   68.8910   43.2630   38.4440 C   0  0  0  0  0  0  0  0  0  0  0  0
   64.9890   41.5110   35.1710 C   0  0  0  0  0  0  0  0  0  0  0  0
   69.3090   41.9700   41.3870 C   0  0  0  0  0  0  0  0  0  0  0  0
   68.6080   41.3230   40.1960 C   0  0  0  0  0  0  0  0  0  0  0  0
   69.2910   38.2360   45.0390 C   0  0  0  0  0  0  0  0  0  0  0  0
   69.0690   40.9820   42.4530 C   0  0  0  0  0  0  0  0  0  0  0  0
   69.2660   38.6630   43.5330 C   0  0  0  0  0  0  0  0  0  0  0  0
   68.5590   42.0000   38.8830 C   0  0  0  0  0  0  0  0  0  0  0  0
  1  6  1  0
  1 13  1  0
  2 18  2  0
  4 11  1  0
  5 25  2  0
  6  7  2  0
  8  1  1  0
  9  4  1  0
 10  8  1  0
 11  3  1  0
 12 15  2  0
 13 15  1  0
 13  2  1  0
 13  5  1  0
 14 23  1  0
 14 24  1  0
 18 25  1  0
 18 16  1  0
 19 12  1  0
 19  8  1  0
 21 20  1  0
 22 17  2  0
 22  3  1  0
 23 20  1  0
 23  9  1  0
 24 22  1  0
 25 21  1  0
M  END
$$$$

     RDKit          3D

 11 11  0  0  0  0  0  0  0  0999 V2000
   68.3220   43.4380   36.0790 C   0  0  0  0  0  0  0  0  0  0  0  0
   69.5380   41.3240   35.9750 C   0  0  0  0  0  0  0  0  0  0  0  0
   67.4320   44.5810   35.9260 C   0  0  0  0  0  0  0  0  0  0  0  0
   68.6810   40.5590   35.0790 N   0  0  0  0  0  0  0  0  0  0  0  0
   68.7340   42.1740   36.8970 C   0  0  0  0  0  0  0  0  0  0  0  0
   67.4950   45.4150   36.7380 O   0  0  0  0  0  0  0  0  0  0  0  0
   69.6130   43.9350   35.5490 N   0  0  0  0  0  0  0  0  0  0  0  0
   69.3170   39.2200   34.8700 C   0  0  0  0  0  0  0  0  0  0  0  0
   67.2450   43.5020   35.3800 O   0  0  0  0  0  0  0  0  0  0  0  0
   67.2690   40.5110   35.3630 C   0  0  0  0  0  0  0  0  0  0  0  0
   69.4430   45.1940   34.8850 C   0  0  0  0  0  0  0  0  0  0  0  0
  1  5  1  0
  2  5  1  0
  3  1  1  0
  3  6  1  0
  4 10  1  0
  4  2  1  0
  7  1  1  0
  8  4  1  0
  9  3  1  0
  9  1  1  0
 11  7  1  0
M  END
$$$$

     RDKit          3D

 19 19  0  0  0  0  0  0  0  0999 V2000
   71.7920   40.6240   34.7450 C   0  0  0  0  0  0  0  0  0  0  0  0
   65.7180   42.5880   37.5200 C   0  0  0  0  0  0  0  0  0  0  0  0
   72.1280   41.1330   36.4390 C   0  0  0  0  0  0  0  0  0  0  0  0
   63.9350   49.2180   38.1520 C   0  0  0  0  0  0  0  0  0  0  0  0
   68.1300   42.2640   37.6470 C   0  0  0  0  0  0  0  0  0  0  0  0
   65.2260   43.7750   36.8850 N   0  0  0  0  0  0  0  0  0  0  0  0
   68.4290   43.5430   37.4550 O   0  0  0  0  0  0  0  0  0  0  0  0
   64.6960   48.1350   37.3500 C   0  0  0  0  0  0  0  0  0  0  0  0
   70.6760   40.3000   34.6340 C   0  0  0  0  0  0  0  0  0  0  0  0
   63.4080   46.9270   37.0810 C   0  0  0  0  0  0  0  0  0  0  0  0
   69.8800   41.0850   36.6390 C   0  0  0  0  0  0  0  0  0  0  0  0
   66.8960   42.0000   36.8240 C   0  0  0  0  0  0  0  0  0  0  0  0
   70.8870   42.3060   38.3720 C   0  0  0  0  0  0  0  0  0  0  0  0
   63.6240   45.5460   37.0200 C   0  0  0  0  0  0  0  0  0  0  0  0
   64.7940   48.5470   35.9950 O   0  0  0  0  0  0  0  0  0  0  0  0
   64.9830   44.9530   36.9680 C   0  0  0  0  0  0  0  0  0  0  0  0
   69.7050   40.3390   35.6020 C   0  0  0  0  0  0  0  0  0  0  0  0
   71.0240   41.4110   37.1470 C   0  0  0  0  0  0  0  0  0  0  0  0
   68.9290   41.4010   37.3910 N   0  0  0  0  0  0  0  0  0  0  0  0
  1  3  1  0
  3 18  1  0
  5  7  1  0
  6 16  1  0
  6  2  1  0
  8  4  1  0
  9  1  1  0
  9 17  1  0
 10  8  1  0
 11 18  2  0
 11 19  1  0
 12  2  1  0
 12  5  1  0
 14 10  1  0
 15  8  1  0
 16 14  2  3
 17 11  1  0
 18 13  1  0
 19  5  1  0
M  END
$$$$

     RDKit          3D

 13 13  0  0  0  0  0  0  0  0999 V2000
   67.4730   45.8040   35.5790 C   0  0  0  0  0  0  0  0  0  0  0  0
   68.3070   44.9160   35.4560 C   0  0  0  0  0  0  0  0  0  0  0  0
   67.2800   40.5070   33.6880 C   0  0  0  0  0  0  0  0  0  0  0  0
   69.4890   42.7250   34.5690 C   0  0  0  0  0  0  0  0  0  0  0  0
   68.0900   42.7090   34.7540 C   0  0  0  0  0  0  0  0  0  0  0  0
   69.7000   44.8440   35.5570 C   0  0  0  0  0  0  0  0  0  0  0  0
   67.9890   39.5320   34.4790 N   0  0  0  0  0  0  0  0  0  0  0  0
   66.0310   39.8860   33.7870 O   0  0  0  0  0  0  0  0  0  0  0  0
   66.2090   46.3160   35.7690 C   0  0  0  0  0  0  0  0  0  0  0  0
   67.3010   41.8800   33.6500 C   0  0  0  0  0  0  0  0  0  0  0  0
   67.5170   43.8210   35.1380 N   0  0  0  0  0  0  0  0  0  0  0  0
   70.0850   41.4780   33.9940 C   0  0  0  0  0  0  0  0  0  0  0  0
   70.2220   43.8370   34.7400 N   0  0  0  0  0  0  0  0  0  0  0  0
  1  9  1  0
  2  6  1  0
  2  1  1  0
  3  8  2  0
  3  7  1  0
  4 12  1  0
  4 13  1  0
  4  5  1  0
  5 10  1  0
  5 11  1  0
 10  3  1  0
 11  2  2  0
 13  6  1  0
M  END
$$$$

     RDKit          3D

 11 11  0  0  0  0  0  0  0  0999 V2000
   69.0870   40.7910   35.1820 C   0  0  0  0  0  0  0  0  0  0  0  0
   67.0120   42.4500   35.2340 O   0  0  0  0  0  0  0  0  0  0  0  0
   69.0810   42.2960   36.9720 C   0  0  0  0  0  0  0  0  0  0  0  0
   68.0320   45.6260   35.8200 C   0  0  0  0  0  0  0  0  0  0  0  0
   69.0170   41.0260   33.7990 O   0  0  0  0  0  0  0  0  0  0  0  0
   67.7140   44.6070   33.6660 O   0  0  0  0  0  0  0  0  0  0  0  0
   69.9850   45.4200   33.9850 C   0  0  0  0  0  0  0  0  0  0  0  0
   69.2940   39.2910   35.4780 C   0  0  0  0  0  0  0  0  0  0  0  0
   67.8430   43.6260   34.7310 N   0  0  0  0  0  0  0  0  0  0  0  0
   68.4590   44.8640   34.4740 C   0  0  0  0  0  0  0  0  0  0  0  0
   68.0200   41.5720   35.9700 C   0  0  0  0  0  0  0  0  0  0  0  0
  1  8  1  0
  1 11  1  0
  2 11  1  0
  5  1  1  0
  6 10  1  0
  6  9  1  0
  7 10  1  0
  9  2  1  0
 10  9  1  0
 10  4  1  0
 11  3  1  0
M  END
$$$$

     RDKit          3D

  7  7  0  0  0  0  0  0  0  0999 V2000
   66.1080   40.9230   34.3460 O   0  0  0  0  0  0  0  0  0  0  0  0
   66.6980   41.2150   36.1760 O   0  0  0  0  0  0  0  0  0  0  0  0
   67.7980   43.3230   33.4570 C   0  0  0  0  0  0  0  0  0  0  0  0
   67.9860   42.0290   34.2800 C   0  0  0  0  0  0  0  0  0  0  0  0
   69.0370   42.5360   33.3180 C   0  0  0  0  0  0  0  0  0  0  0  0
   66.6880   41.6060   35.0330 C   0  0  0  0  0  0  0  0  0  0  0  0
   68.7300   42.3620   34.6790 C   0  0  0  0  0  0  0  0  0  0  0  0
  1  6  1  0
  3  4  1  0
  4  7  1  0
  4  6  1  0
  5  3  1  0
  5  7  1  0
  6  2  1  0
M  END
$$$$

     RDKit          3D

  9  8  0  0  0  0  0  0  0  0999 V2000
   70.1830   41.0510   38.3170 C   0  0  0  0  0  0  0  0  0  0  0  0
   71.9030   39.7320   36.6420 O   0  0  0  0  0  0  0  0  0  0  0  0
   69.6470   41.8050   37.1230 C   0  0  0  0  0  0  0  0  0  0  0  0
   68.1240   41.9990   37.0420 C   0  0  0  0  0  0  0  0  0  0  0  0
   71.0990   38.8690   37.2980 C   0  0  0  0  0  0  0  0  0  0  0  0
   70.1630   39.5060   38.2870 C   0  0  0  0  0  0  0  0  0  0  0  0
   69.2510   38.8020   38.8640 O   0  0  0  0  0  0  0  0  0  0  0  0
   71.4090   37.6160   37.5120 O   0  0  0  0  0  0  0  0  0  0  0  0
   69.8450   41.2110   35.8730 O   0  0  0  0  0  0  0  0  0  0  0  0
  2  5  2  0
  3  4  1  0
  3  1  1  0
  5  8  1  0
  5  6  1  0
  6  1  1  0
  6  7  1  0
  9  3  1  0
M  END
$$$$

     RDKit          3D

  5  4  0  0  0  0  0  0  0  0999 V2000
   68.1830   40.2710   35.8860 O   0  0  0  0  0  0  0  0  0  0  0  0
   69.1440   42.4310   36.2880 C   0  0  0  0  0  0  0  0  0  0  0  0
   67.9570   41.6020   35.8200 C   0  0  0  0  0  0  0  0  0  0  0  0
   69.6200   43.0540   35.1120 O   0  0  0  0  0  0  0  0  0  0  0  0
   67.1900   42.2240   34.8130 O   0  0  0  0  0  0  0  0  0  0  0  0
  3  1  1  0
  3  2  1  0
  4  2  1  0
  5  3  2  0
M  END
$$$$

     RDKit          3D

 13 12  0  0  0  0  0  0  0  0999 V2000
   69.3610   39.9680   35.7760 C   0  0  0  0  0  0  0  0  0  0  0  0
   66.2640   45.5090   35.2390 C   0  0  0  0  0  0  0  0  0  0  0  0
   66.6540   41.0150   34.4080 O   0  0  0  0  0  0  0  0  0  0  0  0
   67.9320   40.9780   34.2490 C   0  0  0  0  0  0  0  0  0  0  0  0
   66.9170   44.2230   33.2740 C   0  0  0  0  0  0  0  0  0  0  0  0
   68.7630   41.2500   35.3320 C   0  0  0  0  0  0  0  0  0  0  0  0
   67.2190   43.2060   35.6500 C   0  0  0  0  0  0  0  0  0  0  0  0
   67.9380   41.9370   36.4110 C   0  0  0  0  0  0  0  0  0  0  0  0
   68.3030   40.5770   33.1200 O   0  0  0  0  0  0  0  0  0  0  0  0
   66.8230   44.3360   34.5760 C   0  0  0  0  0  0  0  0  0  0  0  0
   69.6980   39.1270   34.8260 O   0  0  0  0  0  0  0  0  0  0  0  0
   65.9270   42.9950   36.1420 O   0  0  0  0  0  0  0  0  0  0  0  0
   69.4710   39.6400   36.9730 O   0  0  0  0  0  0  0  0  0  0  0  0
  1 13  1  0
  4  3  1  0
  4  6  1  0
  5 10  2  0
  6  1  1  0
  6  8  1  0
  7 12  1  0
  7  8  1  0
  9  4  2  0
 10  2  1  0
 10  7  1  0
 11  1  2  0
M  END
$$$$

     RDKit          3D

 24 24  0  0  0  0  0  0  0  0999 V2000
   71.5820   39.5580   35.3320 O   0  0  0  0  0  0  0  0  0  0  0  0
   65.1810   42.3400   42.6350 C   0  0  0  0  0  0  0  0  0  0  0  0
   65.6270   44.3870   38.2730 C   0  0  0  0  0  0  0  0  0  0  0  0
   67.2030   42.7470   36.9830 N   0  0  0  0  0  0  0  0  0  0  0  0
   65.7260   43.1090   41.7840 C   0  0  0  0  0  0  0  0  0  0  0  0
   71.0490   40.1510   36.6970 S   0  0  0  0  0  0  0  0  0  0  0  0
   66.0880   44.1540   39.5460 N   0  0  0  0  0  0  0  0  0  0  0  0
   68.3740   39.7050   34.0300 O   0  0  0  0  0  0  0  0  0  0  0  0
   65.9140   42.7660   35.2740 N   0  0  0  0  0  0  0  0  0  0  0  0
   71.8830   41.1790   36.9690 O   0  0  0  0  0  0  0  0  0  0  0  0
   66.2410   43.6720   37.2120 C   0  0  0  0  0  0  0  0  0  0  0  0
   64.1050   43.2230   40.1500 O   0  0  0  0  0  0  0  0  0  0  0  0
   63.3950   43.7920   43.3060 S   0  0  0  0  0  0  0  0  0  0  0  0
   64.2530   42.3620   43.5010 N   0  0  0  0  0  0  0  0  0  0  0  0
   70.7040   39.0780   37.2200 O   0  0  0  0  0  0  0  0  0  0  0  0
   65.4650   43.6420   36.1030 N   0  0  0  0  0  0  0  0  0  0  0  0
   68.8790   40.6200   34.9740 C   0  0  0  0  0  0  0  0  0  0  0  0
   63.7680   41.3440   44.4640 C   0  0  0  0  0  0  0  0  0  0  0  0
   65.2280   43.5400   40.4670 C   0  0  0  0  0  0  0  0  0  0  0  0
   67.3500   42.0500   33.3760 O   0  0  0  0  0  0  0  0  0  0  0  0
   67.1340   42.2750   35.7820 C   0  0  0  0  0  0  0  0  0  0  0  0
   67.6350   41.5470   34.6240 C   0  0  0  0  0  0  0  0  0  0  0  0
   69.6190   40.7570   36.3760 O   0  0  0  0  0  0  0  0  0  0  0  0
   64.8360   45.3940   38.0160 N   0  0  0  0  0  0  0  0  0  0  0  0
  1  6  1  0
  2 14  1  0
  3  7  1  0
  4 11  2  0
  5  2  1  0
  6 10  1  0
  6 15  1  0
  7 19  1  0
  8 17  2  0
  9 21  1  0
  9 16  2  0
 11  3  1  0
 12 19  2  0
 13 14  1  0
 14 18  1  0
 16 11  1  0
 17 23  1  0
 19  5  1  0
 21  4  2  0
 22 20  1  0
 22 17  1  0
 22 21  1  0
 23  6  1  0
 24  3  2  0
M  END
$$$$

     RDKit          3D

 30 32  0  0  0  0  0  0  0  0999 V2000
   68.3160   44.1460   41.9890 O   0  0  0  0  0  0  0  0  0  0  0  0
   68.6920   42.7930   41.9570 C   0  0  0  0  0  0  0  0  0  0  0  0
   69.2440   37.4100   46.4860 C   0  0  0  0  0  0  0  0  0  0  0  0
   66.8670   41.0910   36.0310 C   0  0  0  0  0  0  0  0  0  0  0  0
   68.9960   41.9700   43.0340 N   0  0  0  0  0  0  0  0  0  0  0  0
   68.0410   43.1320   39.9670 C   0  0  0  0  0  0  0  0  0  0  0  0
   68.7210   39.3580   45.0040 C   0  0  0  0  0  0  0  0  0  0  0  0
   67.9870   40.1540   35.8280 O   0  0  0  0  0  0  0  0  0  0  0  0
   66.9540   43.4110   36.1330 N   0  0  0  0  0  0  0  0  0  0  0  0
   69.4720   41.3270   45.1750 C   0  0  0  0  0  0  0  0  0  0  0  0
   68.9300   38.0320   45.3220 O   0  0  0  0  0  0  0  0  0  0  0  0
   67.4170   42.3110   36.7020 C   0  0  0  0  0  0  0  0  0  0  0  0
   68.6350   42.2520   40.7310 N   0  0  0  0  0  0  0  0  0  0  0  0
   66.1370   43.1900   35.1080 C   0  0  0  0  0  0  0  0  0  0  0  0
   67.3030   40.9330   38.6200 O   0  0  0  0  0  0  0  0  0  0  0  0
   66.0130   40.8150   33.7430 C   0  0  0  0  0  0  0  0  0  0  0  0
   66.7480   45.7830   34.1990 C   0  0  0  0  0  0  0  0  0  0  0  0
   64.5170   45.5410   34.3370 C   0  0  0  0  0  0  0  0  0  0  0  0
   67.8650   43.0760   38.7650 N   0  0  0  0  0  0  0  0  0  0  0  0
   68.1610   44.4750   40.4950 C   0  0  0  0  0  0  0  0  0  0  0  0
   65.7790   44.5420   34.0650 S   0  0  0  0  0  0  0  0  0  0  0  0
   68.5130   40.3600   47.0480 O   0  0  0  0  0  0  0  0  0  0  0  0
   68.6340   41.1160   43.9050 C   0  0  0  0  0  0  0  0  0  0  0  0
   68.2920   36.6010   47.2430 N   0  0  0  0  0  0  0  0  0  0  0  0
   65.6700   39.7900   33.7660 O   0  0  0  0  0  0  0  0  0  0  0  0
   65.7150   43.8410   32.6120 C   0  0  0  0  0  0  0  0  0  0  0  0
   67.9060   41.8690   38.0140 C   0  0  0  0  0  0  0  0  0  0  0  0
   68.9620   40.3560   45.8860 C   0  0  0  0  0  0  0  0  0  0  0  0
   65.9680   41.6830   34.9900 C   0  0  0  0  0  0  0  0  0  0  0  0
   68.2720   39.9740   43.7820 O   0  0  0  0  0  0  0  0  0  0  0  0
  2  1  1  0
  2  5  1  0
  3 24  1  0
  4  8  1  0
  4 12  1  0
  6 19  1  0
  6 20  1  0
  6 13  1  0
  7 11  1  0
  7 28  1  0
  9 12  1  0
 10 28  1  0
 11  3  1  0
 12 27  1  0
 13  2  2  0
 14  9  2  0
 16 25  2  0
 20  1  1  0
 21 17  1  0
 21 18  1  0
 21 14  1  0
 23  5  1  0
 23 10  1  0
 26 21  1  0
 27 15  1  0
 27 19  1  0
 28 22  2  0
 29 16  1  0
 29 14  1  0
 29  4  1  0
 30 23  1  0
 30  7  1  0
M  END
$$$$

     RDKit          3D

 21 22  0  0  0  0  0  0  0  0999 V2000
   67.4860   39.9910   32.2360 C   0  0  0  0  0  0  0  0  0  0  0  0
   67.8320   42.1070   36.2250 C   0  0  0  0  0  0  0  0  0  0  0  0
   70.6330   39.3770   34.9050 C   0  0  0  0  0  0  0  0  0  0  0  0
   70.2970   38.7780   33.7860 O   0  0  0  0  0  0  0  0  0  0  0  0
   67.3310   40.4590   34.4470 N   0  0  0  0  0  0  0  0  0  0  0  0
   74.4290   39.4950   36.0900 C   0  0  0  0  0  0  0  0  0  0  0  0
   67.1780   43.3170   38.2250 C   0  0  0  0  0  0  0  0  0  0  0  0
   66.2500   43.9370   36.1270 C   0  0  0  0  0  0  0  0  0  0  0  0
   69.8340   40.7360   36.6960 C   0  0  0  0  0  0  0  0  0  0  0  0
   71.0920   40.7900   37.1670 C   0  0  0  0  0  0  0  0  0  0  0  0
   68.6240   40.3500   34.4460 O   0  0  0  0  0  0  0  0  0  0  0  0
   66.9020   41.1420   35.5330 C   0  0  0  0  0  0  0  0  0  0  0  0
   73.9400   40.5530   38.1520 C   0  0  0  0  0  0  0  0  0  0  0  0
   69.5160   40.0830   35.5940 C   0  0  0  0  0  0  0  0  0  0  0  0
   71.8900   39.5150   35.4350 C   0  0  0  0  0  0  0  0  0  0  0  0
   68.7270   41.5440   37.2770 C   0  0  0  0  0  0  0  0  0  0  0  0
   73.4000   39.9710   36.9450 N   0  0  0  0  0  0  0  0  0  0  0  0
   65.8310   40.9940   35.9690 O   0  0  0  0  0  0  0  0  0  0  0  0
   72.1160   40.1850   36.6380 C   0  0  0  0  0  0  0  0  0  0  0  0
   66.6850   39.3830   33.7330 C   0  0  0  0  0  0  0  0  0  0  0  0
   67.0220   43.0820   36.9020 N   0  0  0  0  0  0  0  0  0  0  0  0
  1 20  1  0
  2 21  1  0
  2 16  1  0
  3 15  2  0
  3 14  1  0
  4  3  1  0
  5 12  1  0
  6 17  1  0
  8 21  1  0
  9 10  1  0
  9 16  1  0
 11  5  1  0
 11 14  1  0
 12 18  2  0
 12  2  1  0
 14  9  2  0
 15 19  1  0
 17 13  1  0
 19 17  1  0
 19 10  2  0
 20  5  1  0
 21  7  1  0
M  END
$$$$

     RDKit          3D

 25 25  0  0  0  0  0  0  0  0999 V2000
   63.6730   45.5410   37.1310 C   0  0  0  0  0  0  0  0  0  0  0  0
   70.1980   41.0920   35.7220 C   0  0  0  0  0  0  0  0  0  0  0  0
   68.5300   40.2470   37.7880 C   0  0  0  0  0  0  0  0  0  0  0  0
   69.0020   41.6050   35.8300 C   0  0  0  0  0  0  0  0  0  0  0  0
   63.0240   46.3200   39.9730 C   0  0  0  0  0  0  0  0  0  0  0  0
   67.0280   41.7860   36.7820 C   0  0  0  0  0  0  0  0  0  0  0  0
   65.8590   44.2360   36.9320 C   0  0  0  0  0  0  0  0  0  0  0  0
   69.7030   39.4910   37.5190 C   0  0  0  0  0  0  0  0  0  0  0  0
   72.8370   37.1800   35.1360 C   0  0  0  0  0  0  0  0  0  0  0  0
   64.5260   46.1050   40.0770 C   0  0  0  0  0  0  0  0  0  0  0  0
   65.9410   43.2330   37.7560 N   0  0  0  0  0  0  0  0  0  0  0  0
   70.1810   38.6830   38.3330 O   0  0  0  0  0  0  0  0  0  0  0  0
   65.1250   44.7730   39.4160 S   0  0  0  0  0  0  0  0  0  0  0  0
   66.0450   41.3010   38.7300 O   0  0  0  0  0  0  0  0  0  0  0  0
   72.0320   37.6350   36.3410 C   0  0  0  0  0  0  0  0  0  0  0  0
   62.6930   47.5990   40.7270 C   0  0  0  0  0  0  0  0  0  0  0  0
   70.9760   36.6610   36.3690 O   0  0  0  0  0  0  0  0  0  0  0  0
   73.2950   35.8050   35.0510 C   0  0  0  0  0  0  0  0  0  0  0  0
   66.3390   42.0450   37.8200 C   0  0  0  0  0  0  0  0  0  0  0  0
   68.1700   41.1630   36.8160 C   0  0  0  0  0  0  0  0  0  0  0  0
   71.7100   39.1240   36.1210 C   0  0  0  0  0  0  0  0  0  0  0  0
   70.2510   39.6260   36.0990 C   0  0  0  0  0  0  0  0  0  0  0  0
   65.1390   45.3500   37.7340 C   0  0  0  0  0  0  0  0  0  0  0  0
   61.4320   47.5270   41.3040 O   0  0  0  0  0  0  0  0  0  0  0  0
   63.1780   47.8320   42.0130 O   0  0  0  0  0  0  0  0  0  0  0  0
  2  4  1  0
  2 22  1  0
  4 20  2  0
  5 10  1  0
  5 16  1  0
  6 20  1  0
  6 19  1  0
  7 23  1  0
  7 11  1  0
  8  3  1  0
  8 12  2  0
  9 15  1  0
 11 19  1  0
 13 10  1  0
 15 17  1  0
 16 24  1  0
 16 25  1  0
 18  9  1  0
 19 14  2  0
 20  3  1  0
 21 15  1  0
 22 21  1  0
 22  8  1  0
 23  1  1  0
 23 13  1  0
M  END
$$$$

     RDKit          3D

 10  9  0  0  0  0  0  0  0  0999 V2000
   67.2630   42.8230   34.0750 N   0  0  0  0  0  0  0  0  0  0  0  0
   68.0510   44.8220   34.8590 C   0  0  0  0  0  0  0  0  0  0  0  0
   68.8740   45.5270   35.5510 O   0  0  0  0  0  0  0  0  0  0  0  0
   68.4250   43.3810   34.8130 C   0  0  0  0  0  0  0  0  0  0  0  0
   68.7980   41.0120   36.3010 C   0  0  0  0  0  0  0  0  0  0  0  0
   69.4920   43.3310   35.9170 N   0  0  0  0  0  0  0  0  0  0  0  0
   69.6990   40.2600   36.0390 O   0  0  0  0  0  0  0  0  0  0  0  0
   67.5050   40.7990   36.3110 O   0  0  0  0  0  0  0  0  0  0  0  0
   69.4880   42.2730   36.8660 C   0  0  0  0  0  0  0  0  0  0  0  0
   66.9270   45.2700   34.5020 O   0  0  0  0  0  0  0  0  0  0  0  0
  1  4  2  0
  2  3  1  0
  4  2  1  0
  4  6  1  0
  5  8  1  0
  5  9  1  0
  6  9  1  0
  7  5  2  0
 10  2  2  0
M  END
$$$$

     RDKit          3D

 11 10  0  0  0  0  0  0  0  0999 V2000
   69.9320   45.0150   35.0540 O   0  0  0  0  0  0  0  0  0  0  0  0
   68.6710   45.6200   34.8710 C   0  0  0  0  0  0  0  0  0  0  0  0
   71.7020   44.0320   36.4230 O   0  0  0  0  0  0  0  0  0  0  0  0
   70.5210   43.7860   35.8300 S   0  0  0  0  0  0  0  0  0  0  0  0
   67.9260   42.9130   36.2810 C   0  0  0  0  0  0  0  0  0  0  0  0
   67.9460   40.2810   36.3560 C   0  0  0  0  0  0  0  0  0  0  0  0
   69.2190   42.9150   35.8090 O   0  0  0  0  0  0  0  0  0  0  0  0
   66.6010   42.2220   38.8390 C   0  0  0  0  0  0  0  0  0  0  0  0
   71.0700   43.2130   34.3380 O   0  0  0  0  0  0  0  0  0  0  0  0
   67.8860   41.7980   38.2290 C   0  0  0  0  0  0  0  0  0  0  0  0
   68.0660   41.5910   37.1830 C   0  0  0  0  0  0  0  0  0  0  0  0
  1  4  1  0
  2  1  1  0
  4  3  1  0
  5 11  1  0
  7  4  1  0
  7  5  1  0
  9  4  1  0
 10  8  1  0
 11  6  1  0
 11 10  1  0
M  END
$$$$

     RDKit          3D

 11 11  0  0  0  0  0  0  0  0999 V2000
   72.4040   40.2920   36.4190 O   0  0  0  0  0  0  0  0  0  0  0  0
   71.3570   41.1180   35.9820 C   0  0  0  0  0  0  0  0  0  0  0  0
   69.4140   40.9720   37.4210 C   0  0  0  0  0  0  0  0  0  0  0  0
   68.9450   41.4340   33.1940 O   0  0  0  0  0  0  0  0  0  0  0  0
   68.3820   41.4270   36.6970 N   0  0  0  0  0  0  0  0  0  0  0  0
   68.3610   41.6950   35.3600 C   0  0  0  0  0  0  0  0  0  0  0  0
   70.7390   41.5090   37.0690 C   0  0  0  0  0  0  0  0  0  0  0  0
   70.6910   40.7140   34.6680 C   0  0  0  0  0  0  0  0  0  0  0  0
   69.2000   40.5840   38.5610 O   0  0  0  0  0  0  0  0  0  0  0  0
   69.3510   41.1180   34.4100 C   0  0  0  0  0  0  0  0  0  0  0  0
   67.4660   42.7820   34.8360 C   0  0  0  0  0  0  0  0  0  0  0  0
  2  1  1  0
  2  7  1  0
  3  9  2  0
  5  3  1  0
  6 11  1  0
  6  5  1  0
  7  3  1  0
  8  2  1  0
 10  4  1  0
 10  8  1  0
 10  6  1  0
M  END
$$$$

     RDKit          3D

 15 14  0  0  0  0  0  0  0  0999 V2000
   65.4380   46.4080   35.2910 O   0  0  0  0  0  0  0  0  0  0  0  0
   65.0430   43.9510   35.4680 O   0  0  0  0  0  0  0  0  0  0  0  0
   65.9900   45.2690   36.2370 P   0  0  0  0  0  0  0  0  0  0  0  0
   67.5090   44.7510   36.1570 C   0  0  0  0  0  0  0  0  0  0  0  0
   68.9220   39.9390   34.0850 C   0  0  0  0  0  0  0  0  0  0  0  0
   71.0680   41.2150   37.9460 C   0  0  0  0  0  0  0  0  0  0  0  0
   69.6590   41.0980   34.7540 C   0  0  0  0  0  0  0  0  0  0  0  0
   69.9860   40.6080   37.0680 C   0  0  0  0  0  0  0  0  0  0  0  0
   69.1210   42.9160   36.3810 C   0  0  0  0  0  0  0  0  0  0  0  0
   69.1630   41.3770   36.1360 C   0  0  0  0  0  0  0  0  0  0  0  0
   70.5260   43.5650   36.6650 C   0  0  0  0  0  0  0  0  0  0  0  0
   65.2290   45.5620   37.6140 O   0  0  0  0  0  0  0  0  0  0  0  0
   70.6090   41.7150   34.2520 O   0  0  0  0  0  0  0  0  0  0  0  0
   69.7140   39.4150   37.4190 O   0  0  0  0  0  0  0  0  0  0  0  0
   67.6800   43.2650   36.3820 C   0  0  0  0  0  0  0  0  0  0  0  0
  1  3  2  0
  2  3  1  0
  3 12  1  0
  4  3  1  0
  4 15  1  0
  5  7  1  0
  7 10  1  0
  8 14  2  0
  8  6  1  0
  9 15  1  0
  9 11  1  0
 10  9  1  0
 10  8  1  0
 13  7  2  0
M  END
$$$$
