
     RDKit          3D

 13 14  0  0  0  0  0  0  0  0999 V2000
   71.6130   41.6530   44.9450 C   0  0  0  0  0  0  0  0  0  0  0  0
   69.8030   41.0860   46.6540 C   0  0  0  0  0  0  0  0  0  0  0  0
   67.9760   41.3600   48.4420 C   0  0  0  0  0  0  0  0  0  0  0  0
   68.8000   43.3860   47.5280 O   0  0  0  0  0  0  0  0  0  0  0  0
   70.4880   43.1050   45.1690 C   0  0  0  0  0  0  0  0  0  0  0  0
   71.5400   41.1080   43.5450 C   0  0  0  0  0  0  0  0  0  0  0  0
   68.5860   40.8010   47.3380 O   0  0  0  0  0  0  0  0  0  0  0  0
   68.7140   44.2360   46.7080 C   0  0  0  0  0  0  0  0  0  0  0  0
   67.8390   42.7940   47.9070 C   0  0  0  0  0  0  0  0  0  0  0  0
   70.6200   44.4350   45.6740 C   0  0  0  0  0  0  0  0  0  0  0  0
   70.2580   41.8640   45.5140 C   0  0  0  0  0  0  0  0  0  0  0  0
   69.2140   44.0300   45.3350 C   0  0  0  0  0  0  0  0  0  0  0  0
   70.4530   39.8340   46.6760 O   0  0  0  0  0  0  0  0  0  0  0  0
  2 13  2  0
  2  7  1  0
  4  9  1  0
  5 12  1  0
  5 11  1  0
  5 10  1  0
  6  1  1  0
  7  3  1  0
  8  4  1  0
  9  3  1  0
 11  1  1  0
 11  2  1  0
 12 10  1  0
 12  8  1  0
M  END
$$$$

     RDKit          3D

 13 13  0  0  0  0  0  0  0  0999 V2000
   69.5320   42.9130   46.8710 C   0  0  0  0  0  0  0  0  0  0  0  0
   69.0660   43.3820   45.6410 O   0  0  0  0  0  0  0  0  0  0  0  0
   70.4350   41.6880   46.8180 C   0  0  0  0  0  0  0  0  0  0  0  0
   69.3360   44.7250   47.5210 C   0  0  0  0  0  0  0  0  0  0  0  0
   70.6240   45.0750   44.6240 O   0  0  0  0  0  0  0  0  0  0  0  0
   71.7970   41.8870   47.1650 O   0  0  0  0  0  0  0  0  0  0  0  0
   68.9630   41.2420   45.0140 O   0  0  0  0  0  0  0  0  0  0  0  0
   71.3240   41.3320   45.0240 O   0  0  0  0  0  0  0  0  0  0  0  0
   70.3070   43.6650   44.4980 P   0  0  0  0  0  0  0  0  0  0  0  0
   71.6960   42.7980   45.0740 C   0  0  0  0  0  0  0  0  0  0  0  0
   70.2570   43.8050   47.7360 N   0  0  0  0  0  0  0  0  0  0  0  0
   70.1070   41.0370   45.5150 C   0  0  0  0  0  0  0  0  0  0  0  0
   69.8350   43.2460   43.2580 O   0  0  0  0  0  0  0  0  0  0  0  0
  1 11  1  0
  2  1  1  0
  3  1  1  0
  3  6  1  0
  4 11  1  0
  8 10  1  0
  8 12  1  0
  9 13  2  0
  9  5  1  0
  9 10  1  0
  9  2  1  0
 12  7  1  0
 12  3  1  0
M  END
$$$$

     RDKit          3D

 19 20  0  0  0  0  0  0  0  0999 V2000
   64.5510   44.8340   49.1950 O   0  0  0  0  0  0  0  0  0  0  0  0
   71.3010   43.7420   45.0560 C   0  0  0  0  0  0  0  0  0  0  0  0
   64.1040   44.1620   50.4470 S   0  0  0  0  0  0  0  0  0  0  0  0
   70.7410   42.5050   47.3640 C   0  0  0  0  0  0  0  0  0  0  0  0
   69.7530   44.0650   44.8650 C   0  0  0  0  0  0  0  0  0  0  0  0
   68.3090   42.5790   48.2480 C   0  0  0  0  0  0  0  0  0  0  0  0
   64.6890   42.5950   50.5460 C   0  0  0  0  0  0  0  0  0  0  0  0
   68.7530   43.4610   45.8990 C   0  0  0  0  0  0  0  0  0  0  0  0
   67.1040   40.4410   48.2570 O   0  0  0  0  0  0  0  0  0  0  0  0
   62.5740   44.3930   50.3370 N   0  0  0  0  0  0  0  0  0  0  0  0
   71.7640   42.8710   44.0580 O   0  0  0  0  0  0  0  0  0  0  0  0
   69.2240   42.5330   46.9760 C   0  0  0  0  0  0  0  0  0  0  0  0
   65.3960   41.9100   49.2590 C   0  0  0  0  0  0  0  0  0  0  0  0
   71.6720   43.2700   46.3520 C   0  0  0  0  0  0  0  0  0  0  0  0
   66.8780   41.8660   48.4650 C   0  0  0  0  0  0  0  0  0  0  0  0
   67.3510   43.7960   45.8440 N   0  0  0  0  0  0  0  0  0  0  0  0
   64.2100   41.8900   48.3200 C   0  0  0  0  0  0  0  0  0  0  0  0
   64.5250   40.8290   48.8250 O   0  0  0  0  0  0  0  0  0  0  0  0
   64.0780   44.9500   51.6770 O   0  0  0  0  0  0  0  0  0  0  0  0
  1  3  2  0
  2 11  1  0
  2 14  1  0
  3  7  1  0
  3 19  2  0
  5  2  1  0
  5  8  2  0
  6 15  1  0
  8 12  1  0
 10  3  1  0
 12  4  1  0
 12  6  1  0
 13  7  1  0
 14  4  1  0
 15  9  1  0
 15 13  1  0
 16  8  1  0
 17 18  1  0
 17 13  1  0
 18 13  1  0
M  END
$$$$

     RDKit          3D

 21 22  0  0  0  0  0  0  0  0999 V2000
   71.5280   39.1400   45.3120 N   0  0  0  0  0  0  0  0  0  0  0  0
   65.4910   43.9150   51.3020 C   0  0  0  0  0  0  0  0  0  0  0  0
   63.3330   42.5530   53.7050 C   0  0  0  0  0  0  0  0  0  0  0  0
   69.8450   39.9800   44.1000 C   0  0  0  0  0  0  0  0  0  0  0  0
   61.3990   42.5550   55.5400 C   0  0  0  0  0  0  0  0  0  0  0  0
   70.8290   41.5470   45.7310 C   0  0  0  0  0  0  0  0  0  0  0  0
   64.0250   43.3830   51.4150 C   0  0  0  0  0  0  0  0  0  0  0  0
   71.3580   43.9040   46.4250 C   0  0  0  0  0  0  0  0  0  0  0  0
   71.2500   42.8500   45.3300 C   0  0  0  0  0  0  0  0  0  0  0  0
   61.8240   43.9930   55.8750 C   0  0  0  0  0  0  0  0  0  0  0  0
   67.6180   43.2920   49.8690 C   0  0  0  0  0  0  0  0  0  0  0  0
   62.3750   41.8400   54.6490 C   0  0  0  0  0  0  0  0  0  0  0  0
   70.1870   43.9280   47.3860 C   0  0  0  0  0  0  0  0  0  0  0  0
   69.8330   41.4750   46.8240 C   0  0  0  0  0  0  0  0  0  0  0  0
   69.5160   42.6340   47.7590 C   0  0  0  0  0  0  0  0  0  0  0  0
   66.1140   43.7140   49.8740 C   0  0  0  0  0  0  0  0  0  0  0  0
   63.5870   44.0690   53.9900 C   0  0  0  0  0  0  0  0  0  0  0  0
   62.4370   44.7610   54.7400 C   0  0  0  0  0  0  0  0  0  0  0  0
   71.0460   40.4690   44.7570 N   0  0  0  0  0  0  0  0  0  0  0  0
   63.7710   42.1250   52.2890 C   0  0  0  0  0  0  0  0  0  0  0  0
   68.0730   42.4290   48.5300 C   0  0  0  0  0  0  0  0  0  0  0  0
  2  7  1  0
  3 17  1  0
  3 12  1  0
  4 19  1  0
  5 10  1  0
  6 19  1  0
  6 14  1  0
  7 20  1  0
  8 13  1  0
  9  6  1  0
  9  8  1  0
 11 16  1  0
 12  5  1  0
 13 15  1  0
 14 15  2  0
 15 21  1  0
 16  2  1  0
 17 18  1  0
 18 10  1  0
 19  1  1  0
 20  3  1  0
 21 11  1  0
M  END
$$$$

     RDKit          3D

 13 15  0  0  0  0  0  0  0  0999 V2000
   71.4640   40.3480   45.2820 O   0  0  0  0  0  0  0  0  0  0  0  0
   69.2460   44.9320   44.2600 C   0  0  0  0  0  0  0  0  0  0  0  0
   70.1690   42.9830   44.5580 C   0  0  0  0  0  0  0  0  0  0  0  0
   69.9330   47.1010   42.7770 C   0  0  0  0  0  0  0  0  0  0  0  0
   71.6420   40.9850   43.9040 C   0  0  0  0  0  0  0  0  0  0  0  0
   69.1140   43.5440   43.8970 O   0  0  0  0  0  0  0  0  0  0  0  0
   69.9510   45.5880   43.0390 C   0  0  0  0  0  0  0  0  0  0  0  0
   72.2780   42.3370   44.1150 C   0  0  0  0  0  0  0  0  0  0  0  0
   70.9000   40.9670   43.2020 O   0  0  0  0  0  0  0  0  0  0  0  0
   70.6520   45.3800   44.0780 C   0  0  0  0  0  0  0  0  0  0  0  0
   72.9410   41.4940   43.4260 C   0  0  0  0  0  0  0  0  0  0  0  0
   70.4380   43.5300   45.6670 O   0  0  0  0  0  0  0  0  0  0  0  0
   71.1040   42.6570   45.5410 C   0  0  0  0  0  0  0  0  0  0  0  0
  2  6  1  0
  3  6  1  0
  3 13  1  0
  3 12  1  0
  5  8  1  0
  5  1  1  0
  7  4  1  0
  7 10  1  0
  7  2  1  0
  8 11  1  0
  8 13  1  0
  9  5  1  0
 10  2  1  0
 11  5  1  0
 13 12  1  0
M  END
$$$$

     RDKit          3D

 11 11  0  0  0  0  0  0  0  0999 V2000
   68.9530   43.8770   46.8010 O   0  0  0  0  0  0  0  0  0  0  0  0
   69.5470   42.1610   43.7130 C   0  0  0  0  0  0  0  0  0  0  0  0
   70.6280   40.1180   44.8450 C   0  0  0  0  0  0  0  0  0  0  0  0
   71.1720   43.7710   47.3460 O   0  0  0  0  0  0  0  0  0  0  0  0
   69.0990   43.4060   44.3920 C   0  0  0  0  0  0  0  0  0  0  0  0
   71.5960   42.5880   45.3090 O   0  0  0  0  0  0  0  0  0  0  0  0
   70.5440   42.5200   42.7330 O   0  0  0  0  0  0  0  0  0  0  0  0
   70.2300   40.8450   46.1260 C   0  0  0  0  0  0  0  0  0  0  0  0
   70.5640   43.4980   45.1260 C   0  0  0  0  0  0  0  0  0  0  0  0
   69.6350   41.0940   44.8020 C   0  0  0  0  0  0  0  0  0  0  0  0
   70.4640   43.7730   46.0600 C   0  0  0  0  0  0  0  0  0  0  0  0
  2  7  1  0
  2  5  1  0
  2 10  1  0
  3  8  1  0
  5  9  1  0
  9  6  1  0
  9 11  1  0
 10  3  1  0
 10  8  1  0
 11  1  2  0
 11  4  1  0
M  END
$$$$

     RDKit          3D

  6  5  0  0  0  0  0  0  0  0999 V2000
   69.2240   41.7720   46.2790 C   0  0  0  0  0  0  0  0  0  0  0  0
   72.5940   43.7720   46.0630 O   0  0  0  0  0  0  0  0  0  0  0  0
   70.4900   43.6290   47.2450 C   0  0  0  0  0  0  0  0  0  0  0  0
   72.2760   45.1690   47.6930 O   0  0  0  0  0  0  0  0  0  0  0  0
   69.9810   43.0570   45.8660 C   0  0  0  0  0  0  0  0  0  0  0  0
   72.0320   44.1240   47.0450 C   0  0  0  0  0  0  0  0  0  0  0  0
  2  6  2  0
  5  1  1  0
  5  3  1  0
  6  3  1  0
  6  4  1  0
M  END
$$$$

     RDKit          3D

 25 25  0  0  0  0  0  0  0  0999 V2000
   70.7660   40.8500   45.5200 O   0  0  0  0  0  0  0  0  0  0  0  0
   66.1820   41.7100   48.1670 C   0  0  0  0  0  0  0  0  0  0  0  0
   61.0400   45.8740   52.7370 N   0  0  0  0  0  0  0  0  0  0  0  0
   68.3760   40.2410   48.0390 C   0  0  0  0  0  0  0  0  0  0  0  0
   56.8190   47.6630   54.3970 O   0  0  0  0  0  0  0  0  0  0  0  0
   67.0930   40.4070   47.9150 C   0  0  0  0  0  0  0  0  0  0  0  0
   69.2810   41.0290   47.3390 O   0  0  0  0  0  0  0  0  0  0  0  0
   70.6020   40.7060   46.9340 C   0  0  0  0  0  0  0  0  0  0  0  0
   71.0490   39.2210   47.1600 C   0  0  0  0  0  0  0  0  0  0  0  0
   63.2440   45.5410   51.4940 C   0  0  0  0  0  0  0  0  0  0  0  0
   61.7960   45.2270   51.7630 C   0  0  0  0  0  0  0  0  0  0  0  0
   72.4970   39.4780   47.6330 C   0  0  0  0  0  0  0  0  0  0  0  0
   70.0010   38.6890   47.8510 C   0  0  0  0  0  0  0  0  0  0  0  0
   64.0510   42.7720   48.6330 C   0  0  0  0  0  0  0  0  0  0  0  0
   61.4230   44.1500   51.0770 O   0  0  0  0  0  0  0  0  0  0  0  0
   63.7950   44.9340   50.1780 C   0  0  0  0  0  0  0  0  0  0  0  0
   68.8830   39.0180   48.4100 N   0  0  0  0  0  0  0  0  0  0  0  0
   59.0230   47.8340   55.4400 C   0  0  0  0  0  0  0  0  0  0  0  0
   59.9440   45.6310   53.7410 C   0  0  0  0  0  0  0  0  0  0  0  0
   66.3780   42.3610   46.9280 O   0  0  0  0  0  0  0  0  0  0  0  0
   58.5220   46.0840   53.6360 C   0  0  0  0  0  0  0  0  0  0  0  0
   58.0190   46.8580   55.0060 C   0  0  0  0  0  0  0  0  0  0  0  0
   63.1860   43.8630   49.2320 C   0  0  0  0  0  0  0  0  0  0  0  0
   57.6740   46.2810   56.0220 O   0  0  0  0  0  0  0  0  0  0  0  0
   65.4380   42.7240   48.9530 O   0  0  0  0  0  0  0  0  0  0  0  0
  1  8  2  0
  2 25  1  0
  3 19  1  0
  4 17  2  0
  5 22  1  0
  6  4  1  0
  6  2  1  0
  7  4  1  0
  8  9  1  0
  8  7  1  0
  9 12  1  0
  9 13  1  0
 10 11  1  0
 11  3  1  0
 13 17  1  0
 14 25  1  0
 14 23  2  3
 15 11  2  0
 16 10  1  0
 20  2  2  0
 21 19  1  0
 21 22  1  0
 22 18  1  0
 22 24  1  0
 23 16  1  0
M  END
$$$$

     RDKit          3D

 35 38  0  0  0  0  0  0  0  0999 V2000
   72.7220   40.0780   44.6360 C   0  0  0  0  0  0  0  0  0  0  0  0
   66.1470   43.2120   47.0320 C   0  0  0  0  0  0  0  0  0  0  0  0
   72.1410   39.1790   45.6590 C   0  0  0  0  0  0  0  0  0  0  0  0
   59.0230   43.9380   58.7850 C   0  0  0  0  0  0  0  0  0  0  0  0
   71.0100   38.6420   47.7070 O   0  0  0  0  0  0  0  0  0  0  0  0
   72.4470   43.2270   45.9010 O   0  0  0  0  0  0  0  0  0  0  0  0
   62.5900   45.3340   54.7140 O   0  0  0  0  0  0  0  0  0  0  0  0
   70.4470   41.7630   47.1700 O   0  0  0  0  0  0  0  0  0  0  0  0
   72.2710   42.0960   43.3650 O   0  0  0  0  0  0  0  0  0  0  0  0
   72.0120   42.0250   45.8470 C   0  0  0  0  0  0  0  0  0  0  0  0
   60.6190   43.0190   59.9850 C   0  0  0  0  0  0  0  0  0  0  0  0
   63.7650   44.6390   54.3350 C   0  0  0  0  0  0  0  0  0  0  0  0
   66.0710   43.7730   49.4830 C   0  0  0  0  0  0  0  0  0  0  0  0
   67.6550   43.2700   46.9050 C   0  0  0  0  0  0  0  0  0  0  0  0
   64.0480   43.3340   55.2540 C   0  0  0  0  0  0  0  0  0  0  0  0
   59.7120   43.7080   57.5000 C   0  0  0  0  0  0  0  0  0  0  0  0
   62.8150   42.9800   56.0840 C   0  0  0  0  0  0  0  0  0  0  0  0
   65.1270   43.8020   50.7480 C   0  0  0  0  0  0  0  0  0  0  0  0
   72.8150   39.4690   43.4440 O   0  0  0  0  0  0  0  0  0  0  0  0
   59.3090   43.3030   59.9050 C   0  0  0  0  0  0  0  0  0  0  0  0
   71.7020   41.1100   46.9530 C   0  0  0  0  0  0  0  0  0  0  0  0
   64.7330   43.6840   52.3840 C   0  0  0  0  0  0  0  0  0  0  0  0
   69.4360   40.9950   47.5770 C   0  0  0  0  0  0  0  0  0  0  0  0
   61.0240   43.6300   57.6820 C   0  0  0  0  0  0  0  0  0  0  0  0
   71.3180   39.6070   46.7550 C   0  0  0  0  0  0  0  0  0  0  0  0
   65.7600   42.6460   48.4510 C   0  0  0  0  0  0  0  0  0  0  0  0
   71.9190   41.3250   44.4740 C   0  0  0  0  0  0  0  0  0  0  0  0
   62.1190   44.1150   56.7550 C   0  0  0  0  0  0  0  0  0  0  0  0
   66.5590   43.4360   50.8230 C   0  0  0  0  0  0  0  0  0  0  0  0
   64.9120   44.6250   53.5030 O   0  0  0  0  0  0  0  0  0  0  0  0
   72.3110   37.9860   45.5250 O   0  0  0  0  0  0  0  0  0  0  0  0
   68.0290   41.0860   47.7940 C   0  0  0  0  0  0  0  0  0  0  0  0
   61.4570   43.5270   59.0040 C   0  0  0  0  0  0  0  0  0  0  0  0
   63.0470   45.7560   53.4300 C   0  0  0  0  0  0  0  0  0  0  0  0
   68.1990   42.0490   47.6280 C   0  0  0  0  0  0  0  0  0  0  0  0
  1 19  1  0
  1  3  1  0
  2 26  1  0
  3 25  1  0
  4 20  1  0
  8 23  1  0
 10  6  2  0
 10 21  1  0
 12  7  1  0
 12 15  1  0
 13 26  1  0
 13 18  1  0
 13 29  1  0
 14  2  1  0
 14 35  1  0
 15 17  1  0
 16 24  1  0
 16  4  1  0
 17 28  1  0
 18 29  1  0
 18 22  1  0
 20 11  1  0
 21  8  1  0
 22 30  1  0
 23 32  1  0
 24 33  1  0
 25 21  1  0
 25  5  1  0
 27  9  1  0
 27  1  1  0
 27 10  1  0
 28 24  1  0
 30 12  1  0
 31  3  2  0
 33 11  1  0
 34 12  1  0
 34  7  1  0
 35 32  1  0
M  END
$$$$

     RDKit          3D

 16 16  0  0  0  0  0  0  0  0999 V2000
   69.5800   45.5300   43.5740 C   0  0  0  0  0  0  0  0  0  0  0  0
   67.5050   42.7030   48.0130 C   0  0  0  0  0  0  0  0  0  0  0  0
   68.2990   43.6780   47.2880 O   0  0  0  0  0  0  0  0  0  0  0  0
   71.9410   45.3810   42.4000 C   0  0  0  0  0  0  0  0  0  0  0  0
   68.3080   42.8450   46.6070 C   0  0  0  0  0  0  0  0  0  0  0  0
   68.1120   43.4210   50.2940 N   0  0  0  0  0  0  0  0  0  0  0  0
   71.1360   43.8720   44.2960 C   0  0  0  0  0  0  0  0  0  0  0  0
   72.1390   42.7280   44.1380 C   0  0  0  0  0  0  0  0  0  0  0  0
   69.7720   43.6750   44.8710 C   0  0  0  0  0  0  0  0  0  0  0  0
   66.7920   40.9100   50.6640 C   0  0  0  0  0  0  0  0  0  0  0  0
   66.3050   42.1940   50.9900 O   0  0  0  0  0  0  0  0  0  0  0  0
   70.7280   44.6950   43.0590 N   0  0  0  0  0  0  0  0  0  0  0  0
   69.2640   45.0240   44.9150 N   0  0  0  0  0  0  0  0  0  0  0  0
   65.8440   42.8860   49.8640 C   0  0  0  0  0  0  0  0  0  0  0  0
   67.0640   43.5150   49.2780 C   0  0  0  0  0  0  0  0  0  0  0  0
   69.5150   42.5030   45.7090 C   0  0  0  0  0  0  0  0  0  0  0  0
  1 13  1  0
  2 15  1  0
  3  2  1  0
  4 12  1  0
  5  3  1  0
  7  8  1  0
  7  9  1  0
  9 13  1  0
  9 16  1  0
 10 11  1  0
 12  1  1  0
 12  7  1  0
 14 11  1  0
 15 14  1  0
 15  6  1  0
 16  5  1  0
M  END
$$$$

     RDKit          3D

 24 28  0  0  0  0  0  0  0  0999 V2000
   65.0900   46.7390   47.3900 N   0  0  0  0  0  0  0  0  0  0  0  0
   65.8320   42.7760   52.8000 C   0  0  0  0  0  0  0  0  0  0  0  0
   65.3460   44.0960   52.3100 C   0  0  0  0  0  0  0  0  0  0  0  0
   66.8990   42.5080   51.7690 N   0  0  0  0  0  0  0  0  0  0  0  0
   66.8530   44.9020   47.8550 C   0  0  0  0  0  0  0  0  0  0  0  0
   64.7160   38.0570   55.1890 C   0  0  0  0  0  0  0  0  0  0  0  0
   66.0030   37.3870   54.7680 C   0  0  0  0  0  0  0  0  0  0  0  0
   66.2250   43.6580   51.1240 C   0  0  0  0  0  0  0  0  0  0  0  0
   66.8460   40.7630   53.4730 C   0  0  0  0  0  0  0  0  0  0  0  0
   65.7350   45.4210   46.9440 C   0  0  0  0  0  0  0  0  0  0  0  0
   64.9890   44.9630   53.3150 C   0  0  0  0  0  0  0  0  0  0  0  0
   63.9860   45.6070   53.1240 O   0  0  0  0  0  0  0  0  0  0  0  0
   66.3330   42.1580   54.0210 C   0  0  0  0  0  0  0  0  0  0  0  0
   67.0840   37.5170   55.9460 N   0  0  0  0  0  0  0  0  0  0  0  0
   66.5410   38.2260   53.5270 C   0  0  0  0  0  0  0  0  0  0  0  0
   65.8070   39.5870   53.5090 C   0  0  0  0  0  0  0  0  0  0  0  0
   67.0330   43.3830   47.5890 C   0  0  0  0  0  0  0  0  0  0  0  0
   64.8050   39.5270   54.6980 C   0  0  0  0  0  0  0  0  0  0  0  0
   67.7950   38.0050   53.2950 N   0  0  0  0  0  0  0  0  0  0  0  0
   65.4530   44.9710   54.4890 O   0  0  0  0  0  0  0  0  0  0  0  0
   66.2890   43.8590   49.7760 C   0  0  0  0  0  0  0  0  0  0  0  0
   66.2860   45.0620   49.1990 N   0  0  0  0  0  0  0  0  0  0  0  0
   66.5540   42.7940   48.8860 N   0  0  0  0  0  0  0  0  0  0  0  0
   67.1130   41.1290   52.1270 N   0  0  0  0  0  0  0  0  0  0  0  0
  2 13  1  0
  3  2  1  0
  3 11  1  0
  4 24  1  0
  4  2  1  0
  5 10  1  0
  5 22  1  0
  7  6  1  0
  7 14  1  0
  8 21  1  0
  8  4  1  0
  8  3  1  0
  8  2  1  0
  9 16  1  0
  9 13  1  0
 10  1  1  0
 11 20  1  0
 12 11  2  0
 15  7  1  0
 16 15  1  0
 16 18  1  0
 17  5  1  0
 17 23  1  0
 18  6  1  0
 19 15  2  0
 22 21  2  0
 23 21  1  0
 24  9  1  0
M  END
$$$$

     RDKit          3D

  9  8  0  0  0  0  0  0  0  0999 V2000
   72.5820   42.4580   47.9470 O   0  0  0  0  0  0  0  0  0  0  0  0
   71.9730   42.3780   46.6720 C   0  0  0  0  0  0  0  0  0  0  0  0
   71.0340   41.1190   46.7260 C   0  0  0  0  0  0  0  0  0  0  0  0
   69.6520   43.3400   46.2500 C   0  0  0  0  0  0  0  0  0  0  0  0
   73.1270   42.0640   45.8410 C   0  0  0  0  0  0  0  0  0  0  0  0
   68.8910   44.3990   45.7130 O   0  0  0  0  0  0  0  0  0  0  0  0
   71.0720   43.5790   46.5410 C   0  0  0  0  0  0  0  0  0  0  0  0
   71.1230   44.5280   47.5100 O   0  0  0  0  0  0  0  0  0  0  0  0
   71.1420   40.2770   45.7020 O   0  0  0  0  0  0  0  0  0  0  0  0
  2  5  1  0
  2  3  1  0
  2  1  1  0
  4  7  1  0
  6  4  1  0
  7  2  1  0
  7  8  1  0
  9  3  1  0
M  END
$$$$

     RDKit          3D

  9  8  0  0  0  0  0  0  0  0999 V2000
   71.1200   44.2780   42.6030 O   0  0  0  0  0  0  0  0  0  0  0  0
   69.7230   42.9990   46.0720 P   0  0  0  0  0  0  0  0  0  0  0  0
   69.7680   41.9880   41.9240 O   0  0  0  0  0  0  0  0  0  0  0  0
   69.9280   42.6300   44.5430 C   0  0  0  0  0  0  0  0  0  0  0  0
   68.9600   42.2140   46.7840 O   0  0  0  0  0  0  0  0  0  0  0  0
   71.3130   43.9540   45.8290 O   0  0  0  0  0  0  0  0  0  0  0  0
   69.3410   44.1320   46.5750 O   0  0  0  0  0  0  0  0  0  0  0  0
   69.5950   43.3480   42.3050 C   0  0  0  0  0  0  0  0  0  0  0  0
   70.6420   43.5620   43.4560 C   0  0  0  0  0  0  0  0  0  0  0  0
  1  9  2  0
  2  7  1  0
  2  5  1  0
  3  8  1  0
  4  2  1  0
  6  2  2  0
  8  9  1  0
  9  4  1  0
M  END
$$$$

     RDKit          3D

 22 23  0  0  0  0  0  0  0  0999 V2000
   66.9260   43.1970   51.2080 C   0  0  0  0  0  0  0  0  0  0  0  0
   68.5430   42.5200   46.9880 C   0  0  0  0  0  0  0  0  0  0  0  0
   63.7620   44.8920   52.4330 N   0  0  0  0  0  0  0  0  0  0  0  0
   69.7130   44.2760   45.9490 C   0  0  0  0  0  0  0  0  0  0  0  0
   72.6980   42.8260   45.3500 C   0  0  0  0  0  0  0  0  0  0  0  0
   68.0830   41.4720   46.5660 O   0  0  0  0  0  0  0  0  0  0  0  0
   70.4020   41.6170   45.3840 C   0  0  0  0  0  0  0  0  0  0  0  0
   65.6680   41.6880   55.1270 N   0  0  0  0  0  0  0  0  0  0  0  0
   69.8500   42.7520   46.3150 C   0  0  0  0  0  0  0  0  0  0  0  0
   64.8230   44.5630   51.5770 C   0  0  0  0  0  0  0  0  0  0  0  0
   65.2090   42.5990   52.8770 C   0  0  0  0  0  0  0  0  0  0  0  0
   71.1790   44.4810   46.1330 C   0  0  0  0  0  0  0  0  0  0  0  0
   67.1300   43.8290   49.9860 N   0  0  0  0  0  0  0  0  0  0  0  0
   65.5890   43.4570   51.8550 C   0  0  0  0  0  0  0  0  0  0  0  0
   67.2390   43.3420   48.8150 C   0  0  0  0  0  0  0  0  0  0  0  0
   72.3150   43.9520   45.8880 C   0  0  0  0  0  0  0  0  0  0  0  0
   62.5650   44.6040   54.4200 O   0  0  0  0  0  0  0  0  0  0  0  0
   64.3660   42.3230   55.1500 C   0  0  0  0  0  0  0  0  0  0  0  0
   63.4880   44.2020   53.5690 C   0  0  0  0  0  0  0  0  0  0  0  0
   64.2180   43.0240   53.8260 C   0  0  0  0  0  0  0  0  0  0  0  0
   67.7270   43.4240   47.8010 N   0  0  0  0  0  0  0  0  0  0  0  0
   71.9790   41.5080   45.6460 C   0  0  0  0  0  0  0  0  0  0  0  0
  1 14  1  0
  2 21  1  0
  3 19  1  0
  4 12  1  0
  4  9  1  0
  5 22  1  0
  5 16  1  0
  6  2  2  0
  7 22  1  0
  7  9  1  0
  8 18  1  0
  9  2  1  0
 10 14  2  0
 10  3  1  0
 11 20  1  0
 13  1  1  0
 14 11  1  0
 15 13  1  0
 16 12  2  0
 19 20  1  0
 19 17  2  0
 20 18  1  0
 21 15  1  0
M  END
$$$$

     RDKit          3D

  8  7  0  0  0  0  0  0  0  0999 V2000
   70.3820   42.5100   44.3090 C   0  0  0  0  0  0  0  0  0  0  0  0
   69.8370   43.0360   43.5430 O   0  0  0  0  0  0  0  0  0  0  0  0
   68.1580   43.0360   45.6740 C   0  0  0  0  0  0  0  0  0  0  0  0
   69.4220   42.6420   47.7800 O   0  0  0  0  0  0  0  0  0  0  0  0
   68.2670   43.6770   45.3970 O   0  0  0  0  0  0  0  0  0  0  0  0
   70.9280   40.9070   46.4160 C   0  0  0  0  0  0  0  0  0  0  0  0
   69.1740   42.3550   46.4160 C   0  0  0  0  0  0  0  0  0  0  0  0
   70.2880   41.9760   45.6140 C   0  0  0  0  0  0  0  0  0  0  0  0
  1  8  1  0
  2  1  2  0
  3  7  1  0
  5  3  2  0
  7  4  1  0
  8  6  1  0
  8  7  1  0
M  END
$$$$

     RDKit          3D

 27 28  0  0  0  0  0  0  0  0999 V2000
   66.8500   38.9900   52.5410 C   0  0  0  0  0  0  0  0  0  0  0  0
   69.3140   42.1170   44.3630 C   0  0  0  0  0  0  0  0  0  0  0  0
   62.6630   41.0580   57.9550 O   0  0  0  0  0  0  0  0  0  0  0  0
   67.8220   42.4840   44.6970 C   0  0  0  0  0  0  0  0  0  0  0  0
   63.6430   43.6450   58.4690 O   0  0  0  0  0  0  0  0  0  0  0  0
   66.5720   40.7960   50.6810 C   0  0  0  0  0  0  0  0  0  0  0  0
   66.9710   41.2880   49.4540 C   0  0  0  0  0  0  0  0  0  0  0  0
   64.1180   39.3910   56.9180 C   0  0  0  0  0  0  0  0  0  0  0  0
   70.0150   43.6350   45.5420 N   0  0  0  0  0  0  0  0  0  0  0  0
   64.0950   40.5260   57.9620 C   0  0  0  0  0  0  0  0  0  0  0  0
   67.4710   39.7660   51.3540 C   0  0  0  0  0  0  0  0  0  0  0  0
   69.0310   43.3620   46.5810 C   0  0  0  0  0  0  0  0  0  0  0  0
   63.3010   39.6940   54.6740 C   0  0  0  0  0  0  0  0  0  0  0  0
   66.0620   38.3760   53.6590 C   0  0  0  0  0  0  0  0  0  0  0  0
   67.2320   41.5330   47.0910 C   0  0  0  0  0  0  0  0  0  0  0  0
   64.4710   39.2160   55.4760 C   0  0  0  0  0  0  0  0  0  0  0  0
   64.5410   42.8350   58.6440 C   0  0  0  0  0  0  0  0  0  0  0  0
   70.0470   43.4400   44.0960 C   0  0  0  0  0  0  0  0  0  0  0  0
   63.2680   38.4520   57.5270 O   0  0  0  0  0  0  0  0  0  0  0  0
   70.0650   44.7120   43.4750 O   0  0  0  0  0  0  0  0  0  0  0  0
   67.9160   42.4560   46.1310 C   0  0  0  0  0  0  0  0  0  0  0  0
   70.4370   46.8320   44.5000 C   0  0  0  0  0  0  0  0  0  0  0  0
   67.1140   42.0860   48.4260 O   0  0  0  0  0  0  0  0  0  0  0  0
   70.8790   45.4370   44.6870 C   0  0  0  0  0  0  0  0  0  0  0  0
   64.9810   41.7040   57.7120 C   0  0  0  0  0  0  0  0  0  0  0  0
   71.0320   44.6120   45.8380 C   0  0  0  0  0  0  0  0  0  0  0  0
   65.6900   38.8380   54.8520 C   0  0  0  0  0  0  0  0  0  0  0  0
  1 14  2  0
  2  4  1  0
  4 21  1  0
  5 17  2  0
  6 11  1  0
  7  6  1  0
  8 19  1  0
  8 10  1  0
  9 26  1  0
  9 12  1  0
 10  3  1  0
 11  1  2  0
 14 27  1  0
 15 23  1  0
 16 13  1  0
 16  8  1  0
 18  2  1  0
 18  9  1  0
 20 18  1  0
 20 24  1  0
 21 12  1  0
 21 15  1  0
 23  7  1  0
 24 22  1  0
 24 26  1  0
 25 10  1  0
 25 17  1  0
 27 16  1  0
M  END
$$$$

     RDKit          3D

 10 10  0  0  0  0  0  0  0  0999 V2000
   70.7290   44.2040   43.7940 O   0  0  0  0  0  0  0  0  0  0  0  0
   71.6060   42.0360   46.4240 P   0  0  0  0  0  0  0  0  0  0  0  0
   70.1040   42.8470   45.9800 C   0  0  0  0  0  0  0  0  0  0  0  0
   68.7510   44.3270   43.8490 O   0  0  0  0  0  0  0  0  0  0  0  0
   69.7760   41.8840   43.5020 O   0  0  0  0  0  0  0  0  0  0  0  0
   72.3690   41.4030   47.5620 O   0  0  0  0  0  0  0  0  0  0  0  0
   68.8140   42.7400   46.1360 O   0  0  0  0  0  0  0  0  0  0  0  0
   70.2390   41.4580   46.1670 O   0  0  0  0  0  0  0  0  0  0  0  0
   69.7390   43.2090   44.1240 P   0  0  0  0  0  0  0  0  0  0  0  0
   72.6240   42.5720   45.4580 O   0  0  0  0  0  0  0  0  0  0  0  0
  1  9  1  0
  2 10  2  0
  2  6  1  0
  3  7  1  0
  3  8  1  0
  3  2  1  0
  4  9  1  0
  5  9  2  0
  8  2  1  0
  9  3  1  0
M  END
$$$$

     RDKit          3D

 19 19  0  0  0  0  0  0  0  0999 V2000
   64.9310   44.6410   53.4000 C   0  0  0  0  0  0  0  0  0  0  0  0
   69.3770   44.0650   45.2610 C   0  0  0  0  0  0  0  0  0  0  0  0
   70.7130   43.9720   44.8420 C   0  0  0  0  0  0  0  0  0  0  0  0
   67.4550   43.0130   46.6250 C   0  0  0  0  0  0  0  0  0  0  0  0
   71.5840   43.3030   45.6230 C   0  0  0  0  0  0  0  0  0  0  0  0
   68.7980   42.4150   49.5420 N   0  0  0  0  0  0  0  0  0  0  0  0
   67.5930   41.6340   49.2710 C   0  0  0  0  0  0  0  0  0  0  0  0
   66.2810   42.4260   52.9550 F   0  0  0  0  0  0  0  0  0  0  0  0
   69.8870   42.7490   47.2720 C   0  0  0  0  0  0  0  0  0  0  0  0
   64.0290   45.0530   54.1330 O   0  0  0  0  0  0  0  0  0  0  0  0
   65.6830   42.9720   51.8160 C   0  0  0  0  0  0  0  0  0  0  0  0
   64.4430   43.6950   52.1640 C   0  0  0  0  0  0  0  0  0  0  0  0
   71.1660   42.5380   46.7100 C   0  0  0  0  0  0  0  0  0  0  0  0
   66.5570   43.9100   51.1750 F   0  0  0  0  0  0  0  0  0  0  0  0
   65.6310   45.3010   53.1020 O   0  0  0  0  0  0  0  0  0  0  0  0
   65.6210   41.9410   50.7120 C   0  0  0  0  0  0  0  0  0  0  0  0
   66.6820   42.3710   47.9130 S   0  0  0  0  0  0  0  0  0  0  0  0
   66.8190   41.5000   50.2800 N   0  0  0  0  0  0  0  0  0  0  0  0
   68.8880   43.3850   46.3550 C   0  0  0  0  0  0  0  0  0  0  0  0
  1 10  1  0
  2 19  1  0
  3  2  2  0
  3  5  1  0
  4 17  2  3
  5 13  2  0
  7  6  1  0
  7 18  1  0
 11 12  1  0
 11  8  1  0
 12  1  1  0
 13  9  1  0
 14 11  1  0
 15  1  1  0
 16 11  1  0
 17  7  1  0
 18 16  1  0
 19  4  1  0
 19  9  2  0
M  END
$$$$

     RDKit          3D

 15 15  0  0  0  0  0  0  0  0999 V2000
   69.7340   42.3930   47.0030 C   0  0  0  0  0  0  0  0  0  0  0  0
   72.1680   40.7140   46.6030 C   0  0  0  0  0  0  0  0  0  0  0  0
   69.7990   45.9720   44.8870 O   0  0  0  0  0  0  0  0  0  0  0  0
   72.1180   41.8410   45.5670 C   0  0  0  0  0  0  0  0  0  0  0  0
   69.7160   42.5990   45.5660 C   0  0  0  0  0  0  0  0  0  0  0  0
   71.3310   40.9170   42.9730 O   0  0  0  0  0  0  0  0  0  0  0  0
   71.1200   42.6440   45.0680 C   0  0  0  0  0  0  0  0  0  0  0  0
   72.6280   40.8300   43.0980 C   0  0  0  0  0  0  0  0  0  0  0  0
   73.2300   41.0700   41.9970 N   0  0  0  0  0  0  0  0  0  0  0  0
   67.9850   44.1300   46.1520 O   0  0  0  0  0  0  0  0  0  0  0  0
   69.0730   43.8810   45.2770 C   0  0  0  0  0  0  0  0  0  0  0  0
   70.1440   44.6780   45.3320 C   0  0  0  0  0  0  0  0  0  0  0  0
   71.3650   43.8580   45.2970 O   0  0  0  0  0  0  0  0  0  0  0  0
   69.7700   42.1850   47.9280 O   0  0  0  0  0  0  0  0  0  0  0  0
   73.0830   41.4880   44.3890 C   0  0  0  0  0  0  0  0  0  0  0  0
  1 14  1  0
  3 12  2  0
  4  2  1  0
  5  1  1  0
  6  8  1  0
  7 13  1  0
  7  5  1  0
  7  4  1  0
  8  9  1  0
  8 15  1  0
 11 12  1  0
 11  5  1  0
 11 10  1  0
 13 12  1  0
 15  4  1  0
M  END
$$$$

     RDKit          3D

 12 12  0  0  0  0  0  0  0  0999 V2000
   71.9410   41.8610   45.3330 C   0  0  0  0  0  0  0  0  0  0  0  0
   70.6810   43.2390   47.7720 O   0  0  0  0  0  0  0  0  0  0  0  0
   70.1900   44.4550   45.6680 C   0  0  0  0  0  0  0  0  0  0  0  0
   69.9890   45.5990   46.1540 O   0  0  0  0  0  0  0  0  0  0  0  0
   70.6380   40.4730   43.9690 O   0  0  0  0  0  0  0  0  0  0  0  0
   72.7000   43.0130   42.8510 O   0  0  0  0  0  0  0  0  0  0  0  0
   70.8380   41.8320   44.2710 C   0  0  0  0  0  0  0  0  0  0  0  0
   70.0810   43.0820   46.4710 C   0  0  0  0  0  0  0  0  0  0  0  0
   70.6960   41.9790   45.7390 C   0  0  0  0  0  0  0  0  0  0  0  0
   72.8980   41.0320   45.2570 O   0  0  0  0  0  0  0  0  0  0  0  0
   71.7320   42.4530   43.2250 C   0  0  0  0  0  0  0  0  0  0  0  0
   70.0030   44.5660   44.5130 O   0  0  0  0  0  0  0  0  0  0  0  0
  1 10  1  0
  1  9  1  0
  3  4  1  0
  3  8  1  0
  6 11  2  0
  7  5  1  0
  7  1  1  0
  7  9  1  0
  8  2  1  0
  9  8  1  0
 11  7  1  0
 12  3  2  0
M  END
$$$$
