
     RDKit          3D

  8  7  0  0  0  0  0  0  0  0999 V2000
   68.7980   47.0600   38.3950 O   0  0  0  0  0  0  0  0  0  0  0  0
   69.2420   45.7600   38.3420 C   0  0  0  0  0  0  0  0  0  0  0  0
   66.7720   45.3890   38.3770 N   0  0  0  0  0  0  0  0  0  0  0  0
   69.0150   43.4580   37.4940 N   0  0  0  0  0  0  0  0  0  0  0  0
   71.5970   45.5670   38.7440 O   0  0  0  0  0  0  0  0  0  0  0  0
   71.1090   44.1610   38.6800 C   0  0  0  0  0  0  0  0  0  0  0  0
   69.7900   44.4220   38.0910 C   0  0  0  0  0  0  0  0  0  0  0  0
   67.7640   45.2420   38.4690 C   0  0  0  0  0  0  0  0  0  0  0  0
  2  1  1  0
  2  8  1  0
  3  8  2  0
  6  5  1  0
  7  4  1  0
  7  2  1  0
  7  6  1  0
M  END
$$$$

     RDKit          3D

 19 21  0  0  0  0  0  0  0  0999 V2000
   59.5170   45.3520   37.4050 N   0  0  0  0  0  0  0  0  0  0  0  0
   68.6930   43.4140   41.0280 C   0  0  0  0  0  0  0  0  0  0  0  0
   69.4660   42.5820   38.7820 C   0  0  0  0  0  0  0  0  0  0  0  0
   61.5340   44.9130   38.8200 C   0  0  0  0  0  0  0  0  0  0  0  0
   67.4260   43.8170   41.6010 C   0  0  0  0  0  0  0  0  0  0  0  0
   62.6180   43.8870   39.3870 C   0  0  0  0  0  0  0  0  0  0  0  0
   68.5480   42.6070   39.7960 C   0  0  0  0  0  0  0  0  0  0  0  0
   70.2520   42.3700   38.1870 N   0  0  0  0  0  0  0  0  0  0  0  0
   70.2510   43.4500   38.8820 C   0  0  0  0  0  0  0  0  0  0  0  0
   67.3390   42.3750   39.0300 C   0  0  0  0  0  0  0  0  0  0  0  0
   64.6040   43.2000   41.1210 C   0  0  0  0  0  0  0  0  0  0  0  0
   66.2670   43.2950   39.5480 C   0  0  0  0  0  0  0  0  0  0  0  0
   66.1480   43.1630   41.0610 C   0  0  0  0  0  0  0  0  0  0  0  0
   64.0780   43.9200   39.8990 C   0  0  0  0  0  0  0  0  0  0  0  0
   62.8170   43.0050   38.2730 F   0  0  0  0  0  0  0  0  0  0  0  0
   71.5000   42.1790   37.4100 C   0  0  0  0  0  0  0  0  0  0  0  0
   61.9200   43.3710   40.5980 F   0  0  0  0  0  0  0  0  0  0  0  0
   64.9800   43.2820   38.8950 C   0  0  0  0  0  0  0  0  0  0  0  0
   60.3130   44.2380   38.1690 C   0  0  0  0  0  0  0  0  0  0  0  0
  1 19  1  0
  2  5  1  0
  3  9  1  0
  3  7  1  0
  4  6  1  0
  6 17  1  0
  7 10  1  0
  7  2  1  0
  8  3  1  0
  8  9  1  0
 10 12  1  0
 12 18  1  0
 12 13  1  0
 13 11  1  0
 13  5  1  0
 14  6  1  0
 14 11  1  0
 15  6  1  0
 16  8  1  0
 18 14  1  0
 19  4  1  0
M  END
$$$$

     RDKit          3D

 13 13  0  0  0  0  0  0  0  0999 V2000
   68.0820   44.2050   37.7070 C   0  0  0  0  0  0  0  0  0  0  0  0
   69.8230   40.5810   37.5430 O   0  0  0  0  0  0  0  0  0  0  0  0
   69.5040   44.9130   35.6230 C   0  0  0  0  0  0  0  0  0  0  0  0
   67.7770   40.4460   36.0100 O   0  0  0  0  0  0  0  0  0  0  0  0
   70.2320   40.3600   35.3820 O   0  0  0  0  0  0  0  0  0  0  0  0
   68.7610   43.7930   36.3660 C   0  0  0  0  0  0  0  0  0  0  0  0
   70.5260   44.6060   34.8920 C   0  0  0  0  0  0  0  0  0  0  0  0
   69.1390   40.9670   36.1210 P   0  0  0  0  0  0  0  0  0  0  0  0
   69.1470   42.5240   36.3920 N   0  0  0  0  0  0  0  0  0  0  0  0
   67.2960   45.4500   37.5760 C   0  0  0  0  0  0  0  0  0  0  0  0
   67.7240   43.0950   38.5080 O   0  0  0  0  0  0  0  0  0  0  0  0
   69.5040   46.0560   36.8450 O   0  0  0  0  0  0  0  0  0  0  0  0
   68.0930   46.5900   36.9740 C   0  0  0  0  0  0  0  0  0  0  0  0
  1 11  1  0
  3  7  1  0
  3  6  1  0
  3 12  1  0
  4  8  1  0
  5  8  2  0
  6  9  1  0
  6  1  1  0
  8  9  1  0
  8  2  1  0
 10  1  1  0
 12 13  1  0
 13 10  1  0
M  END
$$$$

     RDKit          3D

 20 21  0  0  0  0  0  0  0  0999 V2000
   66.6530   43.3120   37.2700 C   0  0  0  0  0  0  0  0  0  0  0  0
   69.3180   39.7020   36.8960 O   0  0  0  0  0  0  0  0  0  0  0  0
   67.5130   44.3630   35.3290 O   0  0  0  0  0  0  0  0  0  0  0  0
   67.2380   43.1800   35.9860 C   0  0  0  0  0  0  0  0  0  0  0  0
   69.2110   40.1150   38.9370 N   0  0  0  0  0  0  0  0  0  0  0  0
   65.4050   44.0430   37.1980 N   0  0  0  0  0  0  0  0  0  0  0  0
   69.8020   42.7330   35.7840 C   0  0  0  0  0  0  0  0  0  0  0  0
   70.3230   43.8060   36.0400 O   0  0  0  0  0  0  0  0  0  0  0  0
   67.1880   46.7340   39.9990 N   0  0  0  0  0  0  0  0  0  0  0  0
   69.2470   40.9030   40.1520 C   0  0  0  0  0  0  0  0  0  0  0  0
   69.2670   40.6670   37.8690 C   0  0  0  0  0  0  0  0  0  0  0  0
   68.4940   42.4470   36.2530 C   0  0  0  0  0  0  0  0  0  0  0  0
   68.0820   45.1670   37.8950 C   0  0  0  0  0  0  0  0  0  0  0  0
   68.4920   46.0890   40.1530 C   0  0  0  0  0  0  0  0  0  0  0  0
   67.8160   43.8130   37.9920 C   0  0  0  0  0  0  0  0  0  0  0  0
   68.7140   41.8600   37.4740 N   0  0  0  0  0  0  0  0  0  0  0  0
   68.8270   45.7890   38.7380 C   0  0  0  0  0  0  0  0  0  0  0  0
   70.2050   41.7490   35.1500 O   0  0  0  0  0  0  0  0  0  0  0  0
   68.4040   42.7280   38.5060 N   0  0  0  0  0  0  0  0  0  0  0  0
   68.6740   42.3590   39.9170 C   0  0  0  0  0  0  0  0  0  0  0  0
  1  6  1  0
  1 15  1  0
  2 11  2  0
  4  3  1  0
  4 12  1  0
  4  1  1  0
  5 10  1  0
  7  8  1  0
  9 14  1  0
 11  5  1  0
 12  7  1  0
 12 16  1  0
 13 17  1  0
 15 13  1  0
 15 19  1  0
 16 11  1  0
 16 19  1  0
 17 14  1  0
 18  7  2  0
 19 20  1  0
 20 10  1  0
M  END
$$$$

     RDKit          3D

 28 29  0  0  0  0  0  0  0  0999 V2000
   68.3680   42.3910   36.8470 C   0  0  0  0  0  0  0  0  0  0  0  0
   64.7160   44.5830   45.0960 C   0  0  0  0  0  0  0  0  0  0  0  0
   65.7820   44.0420   45.9750 N   0  0  0  0  0  0  0  0  0  0  0  0
   68.4470   39.0060   36.3950 C   0  0  0  0  0  0  0  0  0  0  0  0
   68.2620   39.1350   39.7470 O   0  0  0  0  0  0  0  0  0  0  0  0
   66.7440   44.6350   41.9940 N   0  0  0  0  0  0  0  0  0  0  0  0
   65.1310   43.8210   43.7240 C   0  0  0  0  0  0  0  0  0  0  0  0
   69.2490   38.9570   38.6190 P   0  0  0  0  0  0  0  0  0  0  0  0
   69.6050   37.5700   37.8470 O   0  0  0  0  0  0  0  0  0  0  0  0
   67.1020   43.9510   40.6910 C   0  0  0  0  0  0  0  0  0  0  0  0
   62.8000   44.3890   47.0840 N   0  0  0  0  0  0  0  0  0  0  0  0
   68.9130   39.8510   37.3480 N   0  0  0  0  0  0  0  0  0  0  0  0
   68.7720   41.0040   36.4440 C   0  0  0  0  0  0  0  0  0  0  0  0
   70.6850   42.1130   35.2340 C   0  0  0  0  0  0  0  0  0  0  0  0
   63.6400   45.0850   46.1640 C   0  0  0  0  0  0  0  0  0  0  0  0
   68.6000   44.0910   38.6400 C   0  0  0  0  0  0  0  0  0  0  0  0
   67.9300   42.7210   38.1670 C   0  0  0  0  0  0  0  0  0  0  0  0
   64.6930   46.0000   44.7000 N   0  0  0  0  0  0  0  0  0  0  0  0
   67.9380   35.6250   36.9260 C   0  0  0  0  0  0  0  0  0  0  0  0
   68.3260   36.5240   35.6950 C   0  0  0  0  0  0  0  0  0  0  0  0
   68.9160   37.7850   36.2960 C   0  0  0  0  0  0  0  0  0  0  0  0
   67.5420   44.8050   39.5150 C   0  0  0  0  0  0  0  0  0  0  0  0
   67.8150   42.5650   40.8030 C   0  0  0  0  0  0  0  0  0  0  0  0
   68.4360   42.0110   39.4880 C   0  0  0  0  0  0  0  0  0  0  0  0
   70.5940   39.0970   38.9280 O   0  0  0  0  0  0  0  0  0  0  0  0
   69.6210   41.0380   35.1650 C   0  0  0  0  0  0  0  0  0  0  0  0
   68.6460   41.3250   34.0130 C   0  0  0  0  0  0  0  0  0  0  0  0
   66.6320   44.0690   43.4310 C   0  0  0  0  0  0  0  0  0  0  0  0
  2  3  1  0
  2 15  1  0
  4 12  1  0
  6 28  1  0
  7  2  1  0
  8 25  2  0
  8  5  1  0
  9  8  1  0
 10 23  1  0
 10  6  1  0
 12  8  1  0
 13  1  2  3
 13 12  1  0
 15 11  1  0
 16 22  1  0
 17  1  1  0
 17 16  1  0
 17 24  1  0
 18  2  1  0
 20 19  1  0
 21 20  1  0
 21  4  1  0
 21  9  1  0
 22 10  1  0
 24 23  1  0
 26 14  1  0
 26 13  1  0
 27 26  1  0
 28  7  1  0
M  END
$$$$

     RDKit          3D

  8  7  0  0  0  0  0  0  0  0999 V2000
   67.2890   43.8740   40.5460 C   0  0  0  0  0  0  0  0  0  0  0  0
   68.7030   43.8690   38.6040 C   0  0  0  0  0  0  0  0  0  0  0  0
   69.0400   44.4630   37.2680 C   0  0  0  0  0  0  0  0  0  0  0  0
   66.0350   44.2530   40.9700 O   0  0  0  0  0  0  0  0  0  0  0  0
   67.3500   45.8200   39.5050 N   0  0  0  0  0  0  0  0  0  0  0  0
   69.6720   45.4440   37.3590 O   0  0  0  0  0  0  0  0  0  0  0  0
   69.7730   43.3440   36.6120 O   0  0  0  0  0  0  0  0  0  0  0  0
   67.8210   44.8070   39.2660 C   0  0  0  0  0  0  0  0  0  0  0  0
  1  4  1  0
  2  8  1  0
  3  6  1  0
  3  2  1  0
  7  3  1  0
  8  5  2  0
  8  1  1  0
M  END
$$$$

     RDKit          3D

 10 11  0  0  0  0  0  0  0  0999 V2000
   67.7190   46.7320   40.1380 C   0  0  0  0  0  0  0  0  0  0  0  0
   68.6410   47.0340   37.9300 C   0  0  0  0  0  0  0  0  0  0  0  0
   69.2540   47.9350   37.0480 N   0  0  0  0  0  0  0  0  0  0  0  0
   68.6490   44.6490   38.9410 C   0  0  0  0  0  0  0  0  0  0  0  0
   69.2000   45.6660   37.9240 C   0  0  0  0  0  0  0  0  0  0  0  0
   68.4070   43.2100   39.3090 C   0  0  0  0  0  0  0  0  0  0  0  0
   67.9080   42.6650   40.3020 O   0  0  0  0  0  0  0  0  0  0  0  0
   68.4930   43.6410   37.8860 C   0  0  0  0  0  0  0  0  0  0  0  0
   67.5500   45.3000   39.8840 C   0  0  0  0  0  0  0  0  0  0  0  0
   67.9890   47.5300   39.0310 N   0  0  0  0  0  0  0  0  0  0  0  0
  2 10  2  0
  3  2  1  0
  4  8  1  0
  4  6  1  0
  4  9  1  0
  5  2  1  0
  5  4  1  0
  6  7  2  0
  8  6  1  0
  9  1  1  0
 10  1  1  0
M  END
$$$$

     RDKit          3D

 13 12  0  0  0  0  0  0  0  0999 V2000
   67.9980   40.4220   40.0490 O   0  0  0  0  0  0  0  0  0  0  0  0
   68.0500   43.2910   37.9400 C   0  0  0  0  0  0  0  0  0  0  0  0
   71.6030   40.4060   39.0050 O   0  0  0  0  0  0  0  0  0  0  0  0
   67.1870   44.4240   38.1410 N   0  0  0  0  0  0  0  0  0  0  0  0
   67.8440   42.5040   39.0180 C   0  0  0  0  0  0  0  0  0  0  0  0
   68.5190   41.2030   39.3470 C   0  0  0  0  0  0  0  0  0  0  0  0
   68.3360   42.8170   41.3150 O   0  0  0  0  0  0  0  0  0  0  0  0
   66.3240   43.2820   40.7200 O   0  0  0  0  0  0  0  0  0  0  0  0
   67.3730   42.8750   40.3660 C   0  0  0  0  0  0  0  0  0  0  0  0
   70.6030   39.3190   36.9610 O   0  0  0  0  0  0  0  0  0  0  0  0
   70.1800   38.3430   39.1450 O   0  0  0  0  0  0  0  0  0  0  0  0
   69.2720   40.6160   38.4390 O   0  0  0  0  0  0  0  0  0  0  0  0
   70.4070   39.5460   38.4690 P   0  0  0  0  0  0  0  0  0  0  0  0
  2  4  1  0
  5  2  1  0
  5  6  1  0
  5  9  1  0
  6  1  2  0
  9  8  2  0
  9  7  1  0
 10 13  2  0
 12 13  1  0
 12  6  1  0
 13  3  1  0
 13 11  1  0
M  END
$$$$

     RDKit          3D

  9  8  0  0  0  0  0  0  0  0999 V2000
   67.6510   45.1570   40.7390 O   0  0  0  0  0  0  0  0  0  0  0  0
   68.8220   45.5320   38.6420 C   0  0  0  0  0  0  0  0  0  0  0  0
   69.8840   43.9200   37.1690 O   0  0  0  0  0  0  0  0  0  0  0  0
   69.0130   45.8790   35.8950 C   0  0  0  0  0  0  0  0  0  0  0  0
   68.9200   45.1270   37.1880 C   0  0  0  0  0  0  0  0  0  0  0  0
   70.3230   45.5460   35.3180 O   0  0  0  0  0  0  0  0  0  0  0  0
   68.3590   44.5300   39.6870 C   0  0  0  0  0  0  0  0  0  0  0  0
   67.6630   43.4840   39.0940 O   0  0  0  0  0  0  0  0  0  0  0  0
   67.7930   46.5020   38.6450 O   0  0  0  0  0  0  0  0  0  0  0  0
  2  9  1  0
  2  7  1  0
  4  5  1  0
  5  3  1  0
  5  2  1  0
  6  4  1  0
  7  1  1  0
  8  7  1  0
M  END
$$$$

     RDKit          3D

  7  6  0  0  0  0  0  0  0  0999 V2000
   69.3640   44.0280   38.6370 C   0  0  0  0  0  0  0  0  0  0  0  0
   68.4360   45.0680   39.0050 O   0  0  0  0  0  0  0  0  0  0  0  0
   70.6200   43.8250   39.4910 C   0  0  0  0  0  0  0  0  0  0  0  0
   67.1900   45.6350   38.3560 C   0  0  0  0  0  0  0  0  0  0  0  0
   68.4930   43.7970   36.1910 N   0  0  0  0  0  0  0  0  0  0  0  0
   66.0780   45.3730   38.9020 O   0  0  0  0  0  0  0  0  0  0  0  0
   69.4080   43.9800   36.9900 C   0  0  0  0  0  0  0  0  0  0  0  0
  1  2  1  0
  1  3  1  0
  4  6  2  0
  4  2  1  0
  5  7  2  0
  7  1  1  0
M  END
$$$$

     RDKit          3D

  8  7  0  0  0  0  0  0  0  0999 V2000
   68.1830   45.2850   39.4480 C   0  0  0  0  0  0  0  0  0  0  0  0
   69.2960   45.8180   38.6290 C   0  0  0  0  0  0  0  0  0  0  0  0
   68.6140   45.2250   40.9240 C   0  0  0  0  0  0  0  0  0  0  0  0
   67.7920   43.8610   39.0940 C   0  0  0  0  0  0  0  0  0  0  0  0
   69.1750   45.8640   37.0760 C   0  0  0  0  0  0  0  0  0  0  0  0
   70.0280   43.5930   36.7890 O   0  0  0  0  0  0  0  0  0  0  0  0
   68.5770   43.9720   35.6890 O   0  0  0  0  0  0  0  0  0  0  0  0
   69.3860   44.3990   36.4940 C   0  0  0  0  0  0  0  0  0  0  0  0
  1  3  1  0
  2  1  1  0
  4  1  1  0
  5  2  1  0
  7  8  2  0
  8  6  1  0
  8  5  1  0
M  END
$$$$

     RDKit          3D

  9  9  0  0  0  0  0  0  0  0999 V2000
   64.7430   42.6960   38.3740 C   0  0  0  0  0  0  0  0  0  0  0  0
   62.7260   43.2810   39.8440 C   0  0  0  0  0  0  0  0  0  0  0  0
   65.4970   43.7020   39.0660 C   0  0  0  0  0  0  0  0  0  0  0  0
   59.8680   43.0550   40.7540 S   0  0  0  0  0  0  0  0  0  0  0  0
   63.2360   42.6210   38.6450 C   0  0  0  0  0  0  0  0  0  0  0  0
   62.4650   41.8310   38.0760 O   0  0  0  0  0  0  0  0  0  0  0  0
   64.8510   44.6770   40.0020 C   0  0  0  0  0  0  0  0  0  0  0  0
   61.2660   42.8260   40.0970 C   0  0  0  0  0  0  0  0  0  0  0  0
   63.7590   43.8900   40.7990 C   0  0  0  0  0  0  0  0  0  0  0  0
  1  5  1  0
  1  3  2  0
  2  8  1  0
  2  9  1  0
  3  7  1  0
  5  2  1  0
  6  5  2  0
  7  9  1  0
  8  4  2  0
M  END
$$$$

     RDKit          3D

  9  9  0  0  0  0  0  0  0  0999 V2000
   68.0910   45.6030   37.1370 C   0  0  0  0  0  0  0  0  0  0  0  0
   69.6520   42.1000   37.2260 O   0  0  0  0  0  0  0  0  0  0  0  0
   68.4090   44.4190   37.6770 C   0  0  0  0  0  0  0  0  0  0  0  0
   70.3030   44.5660   38.9990 O   0  0  0  0  0  0  0  0  0  0  0  0
   66.1210   44.6310   36.7340 O   0  0  0  0  0  0  0  0  0  0  0  0
   70.4240   43.2580   37.1540 O   0  0  0  0  0  0  0  0  0  0  0  0
   69.8080   44.0830   37.9390 C   0  0  0  0  0  0  0  0  0  0  0  0
   67.1530   44.8850   38.0020 C   0  0  0  0  0  0  0  0  0  0  0  0
   68.4690   46.8410   37.9280 C   0  0  0  0  0  0  0  0  0  0  0  0
  1  3  1  0
  1  9  1  0
  1  8  1  0
  3  7  1  0
  3  8  1  0
  6  2  1  0
  6  7  1  0
  7  4  2  0
  8  5  1  0
M  END
$$$$

     RDKit          3D

 20 20  0  0  0  0  0  0  0  0999 V2000
   68.7960   38.7680   36.7760 O   0  0  0  0  0  0  0  0  0  0  0  0
   65.9620   47.4760   39.3890 C   0  0  0  0  0  0  0  0  0  0  0  0
   66.8910   45.5110   38.2230 C   0  0  0  0  0  0  0  0  0  0  0  0
   70.0370   39.3990   37.3920 P   0  0  0  0  0  0  0  0  0  0  0  0
   66.8300   43.1360   37.4700 C   0  0  0  0  0  0  0  0  0  0  0  0
   70.5140   38.4890   38.5350 O   0  0  0  0  0  0  0  0  0  0  0  0
   68.6680   42.3670   40.1680 O   0  0  0  0  0  0  0  0  0  0  0  0
   68.3010   42.8600   37.6970 C   0  0  0  0  0  0  0  0  0  0  0  0
   64.9500   46.5350   39.9470 C   0  0  0  0  0  0  0  0  0  0  0  0
   65.9870   46.6960   37.9930 C   0  0  0  0  0  0  0  0  0  0  0  0
   68.9340   42.5070   36.4420 O   0  0  0  0  0  0  0  0  0  0  0  0
   69.5530   40.7810   38.0340 O   0  0  0  0  0  0  0  0  0  0  0  0
   65.7620   45.4360   40.6160 C   0  0  0  0  0  0  0  0  0  0  0  0
   66.8180   44.5850   37.0000 C   0  0  0  0  0  0  0  0  0  0  0  0
   68.7870   43.8710   38.0750 O   0  0  0  0  0  0  0  0  0  0  0  0
   68.5590   41.5010   38.9880 P   0  0  0  0  0  0  0  0  0  0  0  0
   71.1700   39.8840   36.3120 O   0  0  0  0  0  0  0  0  0  0  0  0
   66.8900   44.9300   39.6880 C   0  0  0  0  0  0  0  0  0  0  0  0
   67.8160   40.3690   39.6400 O   0  0  0  0  0  0  0  0  0  0  0  0
   63.6980   46.8950   40.1940 O   0  0  0  0  0  0  0  0  0  0  0  0
  1  4  1  0
  2  9  1  0
  3 14  1  0
  3 18  1  0
  4 12  1  0
  4  6  1  0
  5  8  1  0
  8 15  1  0
  8 16  1  0
  9 20  1  0
  9 13  1  0
 10  3  1  0
 10  2  1  0
 11  8  1  0
 12 16  1  0
 14  5  1  0
 16 19  2  0
 16  7  1  0
 17  4  2  0
 18 13  1  0
M  END
$$$$

     RDKit          3D

  9  8  0  0  0  0  0  0  0  0999 V2000
   68.3710   44.1860   38.8550 C   0  0  0  0  0  0  0  0  0  0  0  0
   69.5760   44.2330   36.6490 C   0  0  0  0  0  0  0  0  0  0  0  0
   71.5880   45.3220   37.2170 O   0  0  0  0  0  0  0  0  0  0  0  0
   67.6800   43.4500   39.8750 C   0  0  0  0  0  0  0  0  0  0  0  0
   70.3970   46.2140   35.3980 O   0  0  0  0  0  0  0  0  0  0  0  0
   66.5160   42.9450   39.2900 O   0  0  0  0  0  0  0  0  0  0  0  0
   68.3800   44.2770   37.5220 C   0  0  0  0  0  0  0  0  0  0  0  0
   67.3580   44.7630   36.8120 O   0  0  0  0  0  0  0  0  0  0  0  0
   70.3010   45.5100   36.3600 C   0  0  0  0  0  0  0  0  0  0  0  0
  1  4  1  0
  2  7  1  0
  5  9  2  0
  6  4  1  0
  7  8  1  0
  7  1  1  0
  9  2  1  0
  9  3  1  0
M  END
$$$$

     RDKit          3D

 12 13  0  0  0  0  0  0  0  0999 V2000
   68.4080   45.8610   40.4290 C   0  0  0  0  0  0  0  0  0  0  0  0
   65.8680   45.0800   37.4650 O   0  0  0  0  0  0  0  0  0  0  0  0
   65.8720   45.2700   39.7960 C   0  0  0  0  0  0  0  0  0  0  0  0
   66.3660   45.6170   41.0660 C   0  0  0  0  0  0  0  0  0  0  0  0
   67.4730   45.4250   37.1300 C   0  0  0  0  0  0  0  0  0  0  0  0
   67.6020   46.4660   41.3730 C   0  0  0  0  0  0  0  0  0  0  0  0
   67.8550   47.8290   35.5510 O   0  0  0  0  0  0  0  0  0  0  0  0
   68.5300   45.8990   36.6960 C   0  0  0  0  0  0  0  0  0  0  0  0
   69.7870   45.6410   36.8210 O   0  0  0  0  0  0  0  0  0  0  0  0
   68.1540   45.3370   39.1410 C   0  0  0  0  0  0  0  0  0  0  0  0
   66.7540   45.5890   38.3850 C   0  0  0  0  0  0  0  0  0  0  0  0
   68.2750   47.2340   35.7780 C   0  0  0  0  0  0  0  0  0  0  0  0
  1  6  1  0
  2 11  1  0
  3  4  2  0
  4  6  1  0
  5  8  1  0
  5  2  1  0
  5 11  1  0
  7 12  2  0
  8  9  1  0
 10  1  2  0
 11 10  1  0
 11  3  1  0
 12  8  1  0
M  END
$$$$

     RDKit          3D

  6  6  0  0  0  0  0  0  0  0999 V2000
   69.1390   43.6250   39.7380 F   0  0  0  0  0  0  0  0  0  0  0  0
   69.2020   44.0240   38.7170 C   0  0  0  0  0  0  0  0  0  0  0  0
   67.2850   45.8750   37.7700 S   0  0  0  0  0  0  0  0  0  0  0  0
   70.2500   43.5980   38.0350 O   0  0  0  0  0  0  0  0  0  0  0  0
   68.6380   45.0550   38.3850 C   0  0  0  0  0  0  0  0  0  0  0  0
   68.3300   43.8770   37.9300 O   0  0  0  0  0  0  0  0  0  0  0  0
  2  4  1  0
  2  1  1  0
  5  3  1  0
  5  2  1  0
  6  5  1  0
  6  2  1  0
M  END
$$$$

     RDKit          3D

 26 26  0  0  0  0  0  0  0  0999 V2000
   60.9900   41.7650   47.0650 C   0  0  0  0  0  0  0  0  0  0  0  0
   58.4890   40.9540   47.6440 C   0  0  0  0  0  0  0  0  0  0  0  0
   66.2410   43.2410   40.8640 C   0  0  0  0  0  0  0  0  0  0  0  0
   67.3450   42.3790   40.9390 O   0  0  0  0  0  0  0  0  0  0  0  0
   61.6160   42.1460   44.7670 O   0  0  0  0  0  0  0  0  0  0  0  0
   64.6610   43.3680   44.4360 C   0  0  0  0  0  0  0  0  0  0  0  0
   68.8430   42.5390   37.0290 N   0  0  0  0  0  0  0  0  0  0  0  0
   67.7030   42.1650   39.5870 C   0  0  0  0  0  0  0  0  0  0  0  0
   59.0580   39.9760   45.0160 O   0  0  0  0  0  0  0  0  0  0  0  0
   69.1400   42.4770   39.5120 C   0  0  0  0  0  0  0  0  0  0  0  0
   69.6250   43.6680   38.8350 C   0  0  0  0  0  0  0  0  0  0  0  0
   67.6110   41.7130   36.4200 C   0  0  0  0  0  0  0  0  0  0  0  0
   67.4600   42.2960   37.2880 C   0  0  0  0  0  0  0  0  0  0  0  0
   62.0280   42.2380   46.0850 C   0  0  0  0  0  0  0  0  0  0  0  0
   63.4710   42.1590   46.1660 C   0  0  0  0  0  0  0  0  0  0  0  0
   69.8560   44.8380   36.7360 C   0  0  0  0  0  0  0  0  0  0  0  0
   69.0120   46.0270   36.0990 O   0  0  0  0  0  0  0  0  0  0  0  0
   59.8070   40.7750   47.0740 C   0  0  0  0  0  0  0  0  0  0  0  0
   66.8550   42.8760   38.5100 C   0  0  0  0  0  0  0  0  0  0  0  0
   64.0450   42.0310   44.7560 C   0  0  0  0  0  0  0  0  0  0  0  0
   69.1170   43.9290   37.4530 C   0  0  0  0  0  0  0  0  0  0  0  0
   60.1100   39.6040   48.0370 C   0  0  0  0  0  0  0  0  0  0  0  0
   59.8570   39.8570   45.7090 C   0  0  0  0  0  0  0  0  0  0  0  0
   70.9950   45.0740   36.5750 O   0  0  0  0  0  0  0  0  0  0  0  0
   65.4190   43.5630   42.0260 C   0  0  0  0  0  0  0  0  0  0  0  0
   64.7260   43.6480   43.0590 C   0  0  0  0  0  0  0  0  0  0  0  0
  1 18  1  0
  3  4  1  0
  3 25  2  0
  6 20  1  0
  7 13  1  0
  7 21  1  0
  8  4  1  0
  9 23  2  0
 10  8  1  0
 11 10  1  0
 12 13  2  0
 13 19  1  0
 14  5  1  0
 14 15  1  0
 14  1  1  0
 17 16  2  0
 18  2  1  0
 18 22  1  0
 19  8  1  0
 20 15  1  0
 21 16  1  0
 21 11  1  0
 23 18  1  0
 24 16  1  0
 25 26  2  0
 26  6  1  0
M  END
$$$$

     RDKit          3D

  7  6  0  0  0  0  0  0  0  0999 V2000
   67.8690   44.4390   38.9910 C   0  0  0  0  0  0  0  0  0  0  0  0
   68.6380   43.2580   38.4780 C   0  0  0  0  0  0  0  0  0  0  0  0
   66.6140   44.8380   36.2320 N   0  0  0  0  0  0  0  0  0  0  0  0
   68.7810   42.8390   37.2620 C   0  0  0  0  0  0  0  0  0  0  0  0
   67.5270   46.8520   36.4280 N   0  0  0  0  0  0  0  0  0  0  0  0
   67.2370   45.3200   38.1800 N   0  0  0  0  0  0  0  0  0  0  0  0
   67.5570   45.7290   36.8920 C   0  0  0  0  0  0  0  0  0  0  0  0
  2  1  1  0
  3  7  1  0
  4  2  2  0
  5  7  1  0
  6  1  1  0
  7  6  1  0
M  END
$$$$

     RDKit          3D

 21 22  0  0  0  0  0  0  0  0999 V2000
   70.5060   38.1500   39.1320 C   0  0  0  0  0  0  0  0  0  0  0  0
   69.1260   42.8430   39.7680 O   0  0  0  0  0  0  0  0  0  0  0  0
   71.7240   39.0590   39.0250 C   0  0  0  0  0  0  0  0  0  0  0  0
   68.4870   42.0400   39.1290 C   0  0  0  0  0  0  0  0  0  0  0  0
   69.7760   46.8240   35.7320 O   0  0  0  0  0  0  0  0  0  0  0  0
   68.6390   44.1860   37.9510 C   0  0  0  0  0  0  0  0  0  0  0  0
   68.8550   40.5900   38.9910 C   0  0  0  0  0  0  0  0  0  0  0  0
   69.2300   45.3380   37.5970 C   0  0  0  0  0  0  0  0  0  0  0  0
   69.6030   38.7020   40.0510 O   0  0  0  0  0  0  0  0  0  0  0  0
   70.2680   45.9330   36.6730 C   0  0  0  0  0  0  0  0  0  0  0  0
   68.2500   41.5210   41.8060 N   0  0  0  0  0  0  0  0  0  0  0  0
   65.0280   45.0920   37.9860 O   0  0  0  0  0  0  0  0  0  0  0  0
   66.7530   44.0480   39.3550 O   0  0  0  0  0  0  0  0  0  0  0  0
   69.1060   39.8650   40.1100 C   0  0  0  0  0  0  0  0  0  0  0  0
   67.2410   44.2080   38.0870 C   0  0  0  0  0  0  0  0  0  0  0  0
   69.0690   43.0970   38.3820 C   0  0  0  0  0  0  0  0  0  0  0  0
   65.2440   45.5200   35.8450 O   0  0  0  0  0  0  0  0  0  0  0  0
   67.9540   46.1190   37.1630 C   0  0  0  0  0  0  0  0  0  0  0  0
   65.7880   45.7090   37.0700 C   0  0  0  0  0  0  0  0  0  0  0  0
   67.0880   45.1530   36.9890 C   0  0  0  0  0  0  0  0  0  0  0  0
   68.9070   40.4310   41.4140 C   0  0  0  0  0  0  0  0  0  0  0  0
  1  9  1  0
  3  1  1  0
  4  7  1  0
  4  2  1  0
  5 10  1  0
  6 15  1  0
  6 16  1  0
  7 14  2  3
  8 10  1  0
  8  6  1  0
  9 14  1  0
 14 21  1  0
 15 13  1  0
 16  4  1  0
 16  2  1  0
 17 19  1  0
 18  8  1  0
 19 12  1  0
 20 19  1  0
 20 18  1  0
 20 15  1  0
 21 11  2  0
M  END
$$$$
