
     RDKit          3D

 27 27  0  0  0  0  0  0  0  0999 V2000
   65.2190   45.0450   52.7980 O   0  0  0  0  0  0  0  0  0  0  0  0
   66.5490   41.7220   46.3090 C   0  0  0  0  0  0  0  0  0  0  0  0
   69.4920   38.1180   44.7080 C   0  0  0  0  0  0  0  0  0  0  0  0
   72.3010   39.3800   44.8290 C   0  0  0  0  0  0  0  0  0  0  0  0
   70.3260   38.5780   43.5140 C   0  0  0  0  0  0  0  0  0  0  0  0
   71.2880   40.1790   45.7120 C   0  0  0  0  0  0  0  0  0  0  0  0
   73.8560   37.7890   42.8380 C   0  0  0  0  0  0  0  0  0  0  0  0
   64.4410   44.2440   56.1050 N   0  0  0  0  0  0  0  0  0  0  0  0
   71.8510   38.4270   43.9170 N   0  0  0  0  0  0  0  0  0  0  0  0
   62.4100   42.5180   49.1270 C   0  0  0  0  0  0  0  0  0  0  0  0
   69.0350   41.3870   46.8420 C   0  0  0  0  0  0  0  0  0  0  0  0
   62.8480   43.3090   50.3640 C   0  0  0  0  0  0  0  0  0  0  0  0
   68.8280   39.1970   45.6280 C   0  0  0  0  0  0  0  0  0  0  0  0
   72.4130   37.8940   42.6120 C   0  0  0  0  0  0  0  0  0  0  0  0
   64.4930   43.8350   54.7020 C   0  0  0  0  0  0  0  0  0  0  0  0
   64.2640   42.9930   52.4620 N   0  0  0  0  0  0  0  0  0  0  0  0
   65.9220   42.0560   49.4800 C   0  0  0  0  0  0  0  0  0  0  0  0
   64.0470   42.8960   51.0170 C   0  0  0  0  0  0  0  0  0  0  0  0
   67.0960   42.3380   48.5710 C   0  0  0  0  0  0  0  0  0  0  0  0
   69.8110   40.1010   46.3080 C   0  0  0  0  0  0  0  0  0  0  0  0
   62.5960   44.7830   50.1290 C   0  0  0  0  0  0  0  0  0  0  0  0
   69.5380   42.5490   46.6340 N   0  0  0  0  0  0  0  0  0  0  0  0
   64.1690   42.7380   55.1600 O   0  0  0  0  0  0  0  0  0  0  0  0
   67.5820   41.3420   47.4570 C   0  0  0  0  0  0  0  0  0  0  0  0
   65.2980   43.2450   50.2240 C   0  0  0  0  0  0  0  0  0  0  0  0
   66.2460   44.1190   50.7860 O   0  0  0  0  0  0  0  0  0  0  0  0
   64.5520   44.1400   53.2530 C   0  0  0  0  0  0  0  0  0  0  0  0
  1 27  2  0
  3 13  1  0
  4  6  1  0
  5  9  1  0
  5  3  1  0
  6 20  1  0
  9  4  1  0
 10 12  1  0
 11 24  1  0
 13 20  1  0
 14  7  1  0
 14  9  1  0
 15 23  2  0
 15  8  1  0
 16 27  1  0
 17 25  1  0
 18 12  1  0
 18 16  1  0
 19 17  2  3
 20 11  1  0
 21 12  1  0
 22 11  2  0
 24  2  1  0
 24 19  1  0
 25 26  1  0
 25 18  1  0
 27 15  1  0
M  END
$$$$

     RDKit          3D

 14 14  0  0  0  0  0  0  0  0999 V2000
   72.8150   40.1870   43.2240 O   0  0  0  0  0  0  0  0  0  0  0  0
   67.7950   43.3360   42.4990 C   0  0  0  0  0  0  0  0  0  0  0  0
   67.1910   43.0520   44.7820 O   0  0  0  0  0  0  0  0  0  0  0  0
   70.8600   42.9080   43.6720 C   0  0  0  0  0  0  0  0  0  0  0  0
   69.6960   42.1550   43.7160 O   0  0  0  0  0  0  0  0  0  0  0  0
   72.3390   38.9680   45.1750 O   0  0  0  0  0  0  0  0  0  0  0  0
   71.4050   41.0660   45.0210 C   0  0  0  0  0  0  0  0  0  0  0  0
   72.4820   40.0490   44.3670 C   0  0  0  0  0  0  0  0  0  0  0  0
   70.0650   40.7740   45.7250 C   0  0  0  0  0  0  0  0  0  0  0  0
   67.8610   42.0510   45.6450 C   0  0  0  0  0  0  0  0  0  0  0  0
   67.0710   43.4800   43.7980 C   0  0  0  0  0  0  0  0  0  0  0  0
   71.4970   43.8690   43.4550 O   0  0  0  0  0  0  0  0  0  0  0  0
   68.9670   41.6680   45.2320 C   0  0  0  0  0  0  0  0  0  0  0  0
   70.8540   41.7550   43.9210 N   0  0  0  0  0  0  0  0  0  0  0  0
  1  8  2  0
  2 11  1  0
  3 10  1  0
  4  5  1  0
  4 14  1  0
  5 14  1  0
  7  9  1  0
  8  7  1  0
  8  6  1  0
 11  3  1  0
 12  4  2  0
 13 10  1  0
 13  9  1  0
 14  7  1  0
M  END
$$$$

     RDKit          3D

  6  5  0  0  0  0  0  0  0  0999 V2000
   70.1270   42.9040   44.0140 C   0  0  0  0  0  0  0  0  0  0  0  0
   71.5370   43.1400   42.3480 O   0  0  0  0  0  0  0  0  0  0  0  0
   70.9880   42.9310   43.5750 C   0  0  0  0  0  0  0  0  0  0  0  0
   70.7610   41.5620   43.9700 C   0  0  0  0  0  0  0  0  0  0  0  0
   69.5800   43.9870   43.9950 O   0  0  0  0  0  0  0  0  0  0  0  0
   71.8830   43.8560   44.2040 O   0  0  0  0  0  0  0  0  0  0  0  0
  2  3  1  0
  3  4  1  0
  3  1  1  0
  3  6  1  0
  5  1  1  0
M  END
$$$$

     RDKit          3D

 10 10  0  0  0  0  0  0  0  0999 V2000
   68.5970   44.0770   45.0490 C   0  0  0  0  0  0  0  0  0  0  0  0
   67.7600   41.3290   46.1330 O   0  0  0  0  0  0  0  0  0  0  0  0
   69.3440   42.9150   44.8640 C   0  0  0  0  0  0  0  0  0  0  0  0
   68.9630   41.6970   45.5080 C   0  0  0  0  0  0  0  0  0  0  0  0
   71.0810   40.5820   42.8760 O   0  0  0  0  0  0  0  0  0  0  0  0
   70.5030   41.2240   41.5460 C   0  0  0  0  0  0  0  0  0  0  0  0
   71.1050   40.1740   45.8080 O   0  0  0  0  0  0  0  0  0  0  0  0
   70.1290   40.8260   45.3170 C   0  0  0  0  0  0  0  0  0  0  0  0
   70.2730   41.1140   43.8400 C   0  0  0  0  0  0  0  0  0  0  0  0
   70.2870   42.5630   43.8800 O   0  0  0  0  0  0  0  0  0  0  0  0
  3  1  1  0
  3  4  1  0
  4  2  1  0
  6  5  1  0
  8  4  1  0
  8  7  2  0
  9  5  1  0
  9 10  1  0
  9  8  1  0
 10  3  1  0
M  END
$$$$

     RDKit          3D

 14 15  0  0  0  0  0  0  0  0999 V2000
   65.8450   41.9250   47.7760 O   0  0  0  0  0  0  0  0  0  0  0  0
   68.8120   41.5030   45.7800 C   0  0  0  0  0  0  0  0  0  0  0  0
   69.6720   42.4240   41.1510 C   0  0  0  0  0  0  0  0  0  0  0  0
   71.7470   41.3770   44.2390 C   0  0  0  0  0  0  0  0  0  0  0  0
   69.6160   42.6880   43.5720 C   0  0  0  0  0  0  0  0  0  0  0  0
   69.0190   42.9410   42.3720 O   0  0  0  0  0  0  0  0  0  0  0  0
   68.0830   42.2590   45.1430 C   0  0  0  0  0  0  0  0  0  0  0  0
   67.9370   42.4100   46.3800 C   0  0  0  0  0  0  0  0  0  0  0  0
   70.0830   43.0260   44.9580 O   0  0  0  0  0  0  0  0  0  0  0  0
   69.9670   42.2020   45.9790 O   0  0  0  0  0  0  0  0  0  0  0  0
   70.7890   42.0130   43.0640 C   0  0  0  0  0  0  0  0  0  0  0  0
   67.0290   42.1110   47.4870 C   0  0  0  0  0  0  0  0  0  0  0  0
   71.1620   40.3820   45.1070 O   0  0  0  0  0  0  0  0  0  0  0  0
   68.9590   42.8950   44.4370 C   0  0  0  0  0  0  0  0  0  0  0  0
  2 10  1  0
  2  8  1  0
  3  6  1  0
  4 13  1  0
  5 11  1  0
  5 14  1  0
  6  5  1  0
  7  2  1  0
  7  8  1  0
  8 12  1  0
  9 10  1  0
 11  4  1  0
 12  1  2  0
 14  9  1  0
 14  7  1  0
M  END
$$$$

     RDKit          3D

 12 11  0  0  0  0  0  0  0  0999 V2000
   69.3400   39.9770   46.7580 O   0  0  0  0  0  0  0  0  0  0  0  0
   68.9950   44.6800   45.6400 O   0  0  0  0  0  0  0  0  0  0  0  0
   68.7570   42.5060   46.6490 C   0  0  0  0  0  0  0  0  0  0  0  0
   69.7310   37.5290   47.2280 C   0  0  0  0  0  0  0  0  0  0  0  0
   70.1860   38.8210   46.5700 C   0  0  0  0  0  0  0  0  0  0  0  0
   69.6900   41.2730   47.0130 C   0  0  0  0  0  0  0  0  0  0  0  0
   71.6170   39.0810   46.9660 C   0  0  0  0  0  0  0  0  0  0  0  0
   68.4940   43.5460   45.5430 C   0  0  0  0  0  0  0  0  0  0  0  0
   68.9330   43.4070   47.8710 C   0  0  0  0  0  0  0  0  0  0  0  0
   70.2010   38.5250   45.0140 C   0  0  0  0  0  0  0  0  0  0  0  0
   67.7830   43.1950   44.6140 O   0  0  0  0  0  0  0  0  0  0  0  0
   67.6400   41.7860   46.4450 O   0  0  0  0  0  0  0  0  0  0  0  0
  1  6  1  0
  3  6  1  0
  3  9  1  0
  5  1  1  0
  5  7  1  0
  5  4  1  0
  8  2  1  0
  8  3  1  0
 10  5  1  0
 11  8  2  0
 12  3  1  0
M  END
$$$$

     RDKit          3D

 35 37  0  0  0  0  0  0  0  0999 V2000
   66.6430   40.6540   47.8920 O   0  0  0  0  0  0  0  0  0  0  0  0
   62.5960   49.3660   55.6920 N   0  0  0  0  0  0  0  0  0  0  0  0
   71.5190   41.4850   40.8660 N   0  0  0  0  0  0  0  0  0  0  0  0
   64.3800   45.3700   53.6040 N   0  0  0  0  0  0  0  0  0  0  0  0
   66.2560   40.7720   50.3410 N   0  0  0  0  0  0  0  0  0  0  0  0
   67.8690   42.7930   48.1030 C   0  0  0  0  0  0  0  0  0  0  0  0
   67.0900   41.6750   48.6190 C   0  0  0  0  0  0  0  0  0  0  0  0
   70.2760   41.8090   43.1070 N   0  0  0  0  0  0  0  0  0  0  0  0
   65.8520   44.4510   51.7500 S   0  0  0  0  0  0  0  0  0  0  0  0
   66.8000   42.6560   45.9620 O   0  0  0  0  0  0  0  0  0  0  0  0
   70.4280   41.9040   41.6340 C   0  0  0  0  0  0  0  0  0  0  0  0
   66.2610   46.1100   53.7460 N   0  0  0  0  0  0  0  0  0  0  0  0
   70.7260   40.4120   45.3760 C   0  0  0  0  0  0  0  0  0  0  0  0
   63.0220   47.1880   54.3010 N   0  0  0  0  0  0  0  0  0  0  0  0
   69.5320   41.3570   45.2540 C   0  0  0  0  0  0  0  0  0  0  0  0
   64.7970   37.6210   51.0520 O   0  0  0  0  0  0  0  0  0  0  0  0
   68.1370   42.6700   46.6470 C   0  0  0  0  0  0  0  0  0  0  0  0
   64.2030   46.5450   53.8690 C   0  0  0  0  0  0  0  0  0  0  0  0
   65.2120   48.1750   54.0170 C   0  0  0  0  0  0  0  0  0  0  0  0
   63.0840   48.4520   54.5910 C   0  0  0  0  0  0  0  0  0  0  0  0
   65.5850   39.3540   52.0880 N   0  0  0  0  0  0  0  0  0  0  0  0
   65.4680   37.9290   52.0110 C   0  0  0  0  0  0  0  0  0  0  0  0
   66.2260   37.2100   53.0810 C   0  0  0  0  0  0  0  0  0  0  0  0
   66.6950   42.8190   51.5400 S   0  0  0  0  0  0  0  0  0  0  0  0
   65.2230   46.9180   53.9320 C   0  0  0  0  0  0  0  0  0  0  0  0
   66.3370   39.7920   50.9420 C   0  0  0  0  0  0  0  0  0  0  0  0
   71.4170   40.1600   40.3020 C   0  0  0  0  0  0  0  0  0  0  0  0
   69.6410   42.5100   44.2500 C   0  0  0  0  0  0  0  0  0  0  0  0
   65.5380   45.3090   53.1510 C   0  0  0  0  0  0  0  0  0  0  0  0
   64.0850   48.9190   54.0780 N   0  0  0  0  0  0  0  0  0  0  0  0
   70.0220   40.3750   43.1710 C   0  0  0  0  0  0  0  0  0  0  0  0
   66.4110   48.8400   53.7270 N   0  0  0  0  0  0  0  0  0  0  0  0
   66.5020   41.9320   49.8760 C   0  0  0  0  0  0  0  0  0  0  0  0
   68.8900   41.5220   46.1870 N   0  0  0  0  0  0  0  0  0  0  0  0
   70.9210   39.7200   44.0800 C   0  0  0  0  0  0  0  0  0  0  0  0
  3 11  1  0
  4 18  2  0
  5 26  1  0
  6  7  1  0
  7  1  1  0
  7 33  1  0
  8 31  1  0
  8 28  1  0
  9 29  1  0
 11  8  1  0
 12 25  1  0
 14 20  2  0
 15 13  1  0
 15 34  1  0
 16 22  2  0
 17 10  1  0
 17  6  1  0
 18 25  1  0
 18 14  1  0
 19 30  1  0
 20  2  1  0
 22 21  1  0
 22 23  1  0
 24  9  2  3
 25 19  2  0
 26 21  1  0
 27  3  1  0
 28 15  1  0
 29  4  2  0
 29 12  1  0
 30 20  1  0
 31 35  1  0
 32 19  1  0
 33  5  1  0
 33 24  1  0
 34 17  1  0
 35 13  1  0
M  END
$$$$

     RDKit          3D

 12 12  0  0  0  0  0  0  0  0999 V2000
   70.2620   42.5480   43.6320 O   0  0  0  0  0  0  0  0  0  0  0  0
   69.7880   40.3360   45.0080 O   0  0  0  0  0  0  0  0  0  0  0  0
   69.8120   44.8810   43.1200 C   0  0  0  0  0  0  0  0  0  0  0  0
   71.0250   39.5400   43.8230 O   0  0  0  0  0  0  0  0  0  0  0  0
   72.3710   42.2960   43.5850 C   0  0  0  0  0  0  0  0  0  0  0  0
   72.8340   42.5920   42.6480 O   0  0  0  0  0  0  0  0  0  0  0  0
   70.4390   43.9060   43.9000 C   0  0  0  0  0  0  0  0  0  0  0  0
   72.4220   42.1170   45.2000 C   0  0  0  0  0  0  0  0  0  0  0  0
   70.8520   40.5020   44.6550 N   0  0  0  0  0  0  0  0  0  0  0  0
   71.3000   41.9150   44.4760 C   0  0  0  0  0  0  0  0  0  0  0  0
   68.7090   44.0630   41.8000 S   0  0  0  0  0  0  0  0  0  0  0  0
   69.0390   45.7430   43.8330 N   0  0  0  0  0  0  0  0  0  0  0  0
  1  7  1  0
  3 11  1  0
  3 12  1  0
  3  7  1  0
  4  9  2  0
  5 10  1  0
  5  8  1  0
  6  5  2  0
  9  2  2  0
 10  1  1  0
 10  9  1  0
 10  8  1  0
M  END
$$$$

     RDKit          3D

  9 10  0  0  0  0  0  0  0  0999 V2000
   69.4730   43.6200   42.8130 C   0  0  0  0  0  0  0  0  0  0  0  0
   69.3110   42.7010   41.7660 C   0  0  0  0  0  0  0  0  0  0  0  0
   69.7960   42.6640   45.1060 C   0  0  0  0  0  0  0  0  0  0  0  0
   71.7330   43.7290   43.0730 O   0  0  0  0  0  0  0  0  0  0  0  0
   70.8830   41.7870   44.3980 C   0  0  0  0  0  0  0  0  0  0  0  0
   71.4890   42.3170   43.2170 C   0  0  0  0  0  0  0  0  0  0  0  0
   68.3960   42.4990   44.5350 C   0  0  0  0  0  0  0  0  0  0  0  0
   72.3290   42.6930   42.0680 C   0  0  0  0  0  0  0  0  0  0  0  0
   68.8240   42.2440   43.1800 C   0  0  0  0  0  0  0  0  0  0  0  0
  1  9  1  0
  2  1  1  0
  2  9  1  0
  4  6  1  0
  5  3  1  0
  6  5  1  0
  7  3  1  0
  8  4  1  0
  8  6  1  0
  9  7  1  0
M  END
$$$$

     RDKit          3D

  9  8  0  0  0  0  0  0  0  0999 V2000
   71.7860   39.4080   40.7230 C   0  0  0  0  0  0  0  0  0  0  0  0
   69.5960   41.6320   43.6190 C   0  0  0  0  0  0  0  0  0  0  0  0
   69.4820   40.8370   44.8360 C   0  0  0  0  0  0  0  0  0  0  0  0
   71.2520   39.2580   42.1600 C   0  0  0  0  0  0  0  0  0  0  0  0
   71.1180   41.4900   43.2520 C   0  0  0  0  0  0  0  0  0  0  0  0
   70.4980   43.9240   43.9470 O   0  0  0  0  0  0  0  0  0  0  0  0
   71.2440   40.2450   42.7210 C   0  0  0  0  0  0  0  0  0  0  0  0
   69.0980   42.9470   44.1490 C   0  0  0  0  0  0  0  0  0  0  0  0
   68.4830   43.4960   45.0570 O   0  0  0  0  0  0  0  0  0  0  0  0
  1  4  1  0
  2  8  1  0
  2  3  1  0
  4  7  1  0
  5  2  1  0
  6  8  2  0
  7  5  1  0
  8  9  1  0
M  END
$$$$

     RDKit          3D

  7  7  0  0  0  0  0  0  0  0999 V2000
   72.4230   41.6810   45.1210 C   0  0  0  0  0  0  0  0  0  0  0  0
   71.1160   42.2120   44.8190 C   0  0  0  0  0  0  0  0  0  0  0  0
   72.1860   41.8730   43.7930 C   0  0  0  0  0  0  0  0  0  0  0  0
   69.0110   41.3060   45.5870 O   0  0  0  0  0  0  0  0  0  0  0  0
   70.8950   39.6960   43.2600 O   0  0  0  0  0  0  0  0  0  0  0  0
   69.8300   41.3650   44.6570 C   0  0  0  0  0  0  0  0  0  0  0  0
   69.8390   40.4940   43.3580 C   0  0  0  0  0  0  0  0  0  0  0  0
  2  1  1  0
  3  2  1  0
  3  1  1  0
  5  7  1  0
  6  2  1  0
  6  4  2  0
  7  6  1  0
M  END
$$$$

     RDKit          3D

 14 14  0  0  0  0  0  0  0  0999 V2000
   73.4990   41.6980   44.7800 O   0  0  0  0  0  0  0  0  0  0  0  0
   69.7330   44.8320   43.8250 C   0  0  0  0  0  0  0  0  0  0  0  0
   71.0410   40.9570   44.3160 C   0  0  0  0  0  0  0  0  0  0  0  0
   72.4370   41.3220   43.8910 C   0  0  0  0  0  0  0  0  0  0  0  0
   69.2010   43.7410   44.7150 C   0  0  0  0  0  0  0  0  0  0  0  0
   68.9260   40.9920   45.0240 O   0  0  0  0  0  0  0  0  0  0  0  0
   70.5840   44.3980   43.1880 O   0  0  0  0  0  0  0  0  0  0  0  0
   69.3480   46.1660   44.1880 C   0  0  0  0  0  0  0  0  0  0  0  0
   70.1230   43.5290   45.7720 O   0  0  0  0  0  0  0  0  0  0  0  0
   71.6310   38.7520   44.2700 O   0  0  0  0  0  0  0  0  0  0  0  0
   70.0070   41.4630   44.3730 C   0  0  0  0  0  0  0  0  0  0  0  0
   71.8830   39.9320   44.2480 C   0  0  0  0  0  0  0  0  0  0  0  0
   69.2380   42.5870   43.7520 C   0  0  0  0  0  0  0  0  0  0  0  0
   68.7170   42.3340   42.6190 O   0  0  0  0  0  0  0  0  0  0  0  0
  2  8  1  0
  2  5  1  0
  3 11  1  0
  4 12  1  0
  4  3  1  0
  4  1  1  0
  5  9  1  0
  7  2  2  0
 11  6  1  0
 12 10  2  0
 12  3  1  0
 13 11  1  0
 13  5  1  0
 14 13  2  0
M  END
$$$$

     RDKit          3D

 26 25  0  0  0  0  0  0  0  0999 V2000
   69.0990   40.6110   41.3840 O   0  0  0  0  0  0  0  0  0  0  0  0
   59.8730   44.0710   53.9850 C   0  0  0  0  0  0  0  0  0  0  0  0
   70.8150   41.9050   40.3100 O   0  0  0  0  0  0  0  0  0  0  0  0
   70.5040   40.5750   44.8820 N   0  0  0  0  0  0  0  0  0  0  0  0
   68.3580   42.3510   47.6040 C   0  0  0  0  0  0  0  0  0  0  0  0
   70.7100   41.6650   42.6940 O   0  0  0  0  0  0  0  0  0  0  0  0
   62.2390   44.2870   52.9840 C   0  0  0  0  0  0  0  0  0  0  0  0
   65.7740   42.9270   52.1160 C   0  0  0  0  0  0  0  0  0  0  0  0
   70.8960   39.4350   40.5440 C   0  0  0  0  0  0  0  0  0  0  0  0
   66.4690   43.0210   49.7280 C   0  0  0  0  0  0  0  0  0  0  0  0
   66.0210   42.6070   48.4250 N   0  0  0  0  0  0  0  0  0  0  0  0
   69.4620   40.6640   45.8720 C   0  0  0  0  0  0  0  0  0  0  0  0
   59.4600   43.6740   52.7090 C   0  0  0  0  0  0  0  0  0  0  0  0
   70.3010   43.1590   46.4180 C   0  0  0  0  0  0  0  0  0  0  0  0
   70.5850   44.0820   45.6220 O   0  0  0  0  0  0  0  0  0  0  0  0
   71.9920   42.0130   44.6570 C   0  0  0  0  0  0  0  0  0  0  0  0
   65.3170   43.5350   50.6430 C   0  0  0  0  0  0  0  0  0  0  0  0
   64.6370   43.1670   53.0800 C   0  0  0  0  0  0  0  0  0  0  0  0
   61.3680   44.3470   54.2590 C   0  0  0  0  0  0  0  0  0  0  0  0
   69.2710   42.0890   46.4160 C   0  0  0  0  0  0  0  0  0  0  0  0
   58.9950   42.2690   55.3680 O   0  0  0  0  0  0  0  0  0  0  0  0
   66.8800   41.9670   47.4150 C   0  0  0  0  0  0  0  0  0  0  0  0
   70.5210   40.9770   41.2520 P   0  0  0  0  0  0  0  0  0  0  0  0
   59.0540   43.5510   55.1780 C   0  0  0  0  0  0  0  0  0  0  0  0
   63.7180   44.1050   53.3060 C   0  0  0  0  0  0  0  0  0  0  0  0
   70.6470   41.7950   44.1050 C   0  0  0  0  0  0  0  0  0  0  0  0
  2 13  1  0
  2 19  1  0
  2 24  1  0
  3 23  2  0
  4 12  1  0
  6 26  1  0
  7 25  1  0
  7 19  1  0
  8 18  1  0
 10 17  1  0
 11 10  1  0
 15 14  2  0
 17  8  1  0
 18 25  1  0
 20 12  1  0
 20 14  1  0
 20  5  1  0
 22  5  1  0
 22 11  1  0
 23  9  1  0
 23  1  1  0
 23  6  1  0
 24 21  1  0
 26 16  1  0
 26  4  1  0
M  END
$$$$

     RDKit          3D

 12 11  0  0  0  0  0  0  0  0999 V2000
   69.1350   42.5720   42.5790 C   0  0  0  0  0  0  0  0  0  0  0  0
   70.3190   41.5460   45.3300 C   0  0  0  0  0  0  0  0  0  0  0  0
   71.3000   42.2080   44.5850 C   0  0  0  0  0  0  0  0  0  0  0  0
   72.3010   42.7570   45.4800 C   0  0  0  0  0  0  0  0  0  0  0  0
   71.4060   42.9490   43.3910 O   0  0  0  0  0  0  0  0  0  0  0  0
   73.3230   41.8840   45.5460 O   0  0  0  0  0  0  0  0  0  0  0  0
   68.8070   40.1990   43.0340 O   0  0  0  0  0  0  0  0  0  0  0  0
   68.3810   43.8030   42.5380 O   0  0  0  0  0  0  0  0  0  0  0  0
   70.7170   41.2980   46.6650 O   0  0  0  0  0  0  0  0  0  0  0  0
   70.4970   43.0060   43.3060 C   0  0  0  0  0  0  0  0  0  0  0  0
   72.0680   44.0150   46.1910 C   0  0  0  0  0  0  0  0  0  0  0  0
   68.2550   41.6030   43.4460 C   0  0  0  0  0  0  0  0  0  0  0  0
  1  8  1  0
  1 10  1  0
  1 12  1  0
  2  9  1  0
  3  2  1  0
  3  4  1  0
  4  6  1  0
  4 11  1  0
  5  3  1  0
  7 12  1  0
 10  5  1  0
M  END
$$$$

     RDKit          3D

  8  8  0  0  0  0  0  0  0  0999 V2000
   71.5230   44.5230   41.7520 S   0  0  0  0  0  0  0  0  0  0  0  0
   69.1110   43.7750   40.4740 O   0  0  0  0  0  0  0  0  0  0  0  0
   71.2460   44.6300   40.4820 O   0  0  0  0  0  0  0  0  0  0  0  0
   69.6480   42.2410   42.1770 O   0  0  0  0  0  0  0  0  0  0  0  0
   70.0680   42.8400   40.8270 C   0  0  0  0  0  0  0  0  0  0  0  0
   70.8710   44.8730   42.9010 O   0  0  0  0  0  0  0  0  0  0  0  0
   71.5150   43.1540   41.2500 C   0  0  0  0  0  0  0  0  0  0  0  0
   72.7070   45.5500   41.8320 O   0  0  0  0  0  0  0  0  0  0  0  0
  1  8  1  0
  1  6  1  0
  2  5  1  0
  3  7  1  0
  3  1  1  0
  5  4  1  0
  7  5  1  0
  7  1  1  0
M  END
$$$$

     RDKit          3D

 25 25  0  0  0  0  0  0  0  0999 V2000
   67.6930   40.3990   48.0090 C   0  0  0  0  0  0  0  0  0  0  0  0
   69.0220   40.7200   43.6090 C   0  0  0  0  0  0  0  0  0  0  0  0
   68.2410   40.4470   44.8560 C   0  0  0  0  0  0  0  0  0  0  0  0
   67.6720   41.6490   47.0730 C   0  0  0  0  0  0  0  0  0  0  0  0
   69.3710   42.1440   43.2650 C   0  0  0  0  0  0  0  0  0  0  0  0
   65.8700   37.7260   55.1230 C   0  0  0  0  0  0  0  0  0  0  0  0
   71.3530   44.9800   43.4410 O   0  0  0  0  0  0  0  0  0  0  0  0
   67.3300   39.4520   52.3370 C   0  0  0  0  0  0  0  0  0  0  0  0
   63.1860   39.9490   58.6540 C   0  0  0  0  0  0  0  0  0  0  0  0
   67.7950   40.3010   49.7300 C   0  0  0  0  0  0  0  0  0  0  0  0
   66.1720   39.5240   53.4590 C   0  0  0  0  0  0  0  0  0  0  0  0
   64.2760   38.9170   57.8760 C   0  0  0  0  0  0  0  0  0  0  0  0
   66.9050   40.6750   50.3170 C   0  0  0  0  0  0  0  0  0  0  0  0
   64.4500   39.4230   56.4220 C   0  0  0  0  0  0  0  0  0  0  0  0
   69.7210   42.4130   41.9020 C   0  0  0  0  0  0  0  0  0  0  0  0
   70.7460   44.1490   44.1900 C   0  0  0  0  0  0  0  0  0  0  0  0
   70.4490   44.6140   41.0810 C   0  0  0  0  0  0  0  0  0  0  0  0
   64.5220   37.7100   55.6750 C   0  0  0  0  0  0  0  0  0  0  0  0
   69.6620   43.0980   44.1120 C   0  0  0  0  0  0  0  0  0  0  0  0
   67.8100   41.6740   45.5900 C   0  0  0  0  0  0  0  0  0  0  0  0
   70.3550   43.4870   40.1720 C   0  0  0  0  0  0  0  0  0  0  0  0
   67.1420   40.0180   51.4150 C   0  0  0  0  0  0  0  0  0  0  0  0
   71.1330   43.1650   44.7050 O   0  0  0  0  0  0  0  0  0  0  0  0
   65.8180   38.1490   53.6870 C   0  0  0  0  0  0  0  0  0  0  0  0
   70.8470   43.1710   41.5610 C   0  0  0  0  0  0  0  0  0  0  0  0
  1 10  1  0
  2  3  1  0
  3 20  1  0
  4  1  1  0
  5 15  1  0
  5  2  1  0
  5 19  1  0
  6 18  1  0
  7 16  1  0
  8 11  1  0
 10 13  1  0
 11 24  1  0
 12  9  1  0
 13 22  1  0
 14 12  1  0
 16 23  1  0
 17 25  1  0
 18 14  1  0
 19 16  1  0
 20  4  2  3
 21 17  1  0
 21 25  1  0
 22  8  1  0
 24  6  1  0
 25 15  1  0
M  END
$$$$

     RDKit          3D

 10 10  0  0  0  0  0  0  0  0999 V2000
   70.1680   42.2650   43.2030 C   0  0  0  0  0  0  0  0  0  0  0  0
   69.9160   43.6700   43.9160 C   0  0  0  0  0  0  0  0  0  0  0  0
   69.3200   42.5390   42.0890 C   0  0  0  0  0  0  0  0  0  0  0  0
   72.1770   41.7610   44.4530 O   0  0  0  0  0  0  0  0  0  0  0  0
   69.3460   41.4990   41.1260 O   0  0  0  0  0  0  0  0  0  0  0  0
   69.1180   44.4800   43.5440 O   0  0  0  0  0  0  0  0  0  0  0  0
   72.1650   42.3100   43.6050 C   0  0  0  0  0  0  0  0  0  0  0  0
   67.9420   42.5670   42.5310 O   0  0  0  0  0  0  0  0  0  0  0  0
   71.0870   41.8220   43.5980 C   0  0  0  0  0  0  0  0  0  0  0  0
   70.8210   44.4940   44.2890 O   0  0  0  0  0  0  0  0  0  0  0  0
  1  3  1  0
  1  2  1  0
  2 10  1  0
  3  8  1  0
  5  3  1  0
  6  2  2  0
  7  4  1  0
  9  1  1  0
  9  7  1  0
  9  4  1  0
M  END
$$$$

     RDKit          3D

 12 11  0  0  0  0  0  0  0  0999 V2000
   71.8870   40.2520   43.2400 S   0  0  0  0  0  0  0  0  0  0  0  0
   70.0920   40.7120   45.5340 C   0  0  0  0  0  0  0  0  0  0  0  0
   69.6580   39.5040   45.7310 O   0  0  0  0  0  0  0  0  0  0  0  0
   71.7680   42.0370   43.7430 C   0  0  0  0  0  0  0  0  0  0  0  0
   69.8810   43.5330   43.5250 C   0  0  0  0  0  0  0  0  0  0  0  0
   69.7400   41.5050   44.7300 N   0  0  0  0  0  0  0  0  0  0  0  0
   72.9240   42.8260   43.8900 C   0  0  0  0  0  0  0  0  0  0  0  0
   71.1130   41.0040   46.1820 O   0  0  0  0  0  0  0  0  0  0  0  0
   71.6130   38.7730   44.2040 C   0  0  0  0  0  0  0  0  0  0  0  0
   73.0380   43.9910   43.6030 O   0  0  0  0  0  0  0  0  0  0  0  0
   70.5180   42.4230   44.0640 C   0  0  0  0  0  0  0  0  0  0  0  0
   73.9760   42.2250   43.6110 O   0  0  0  0  0  0  0  0  0  0  0  0
  1  9  1  0
  2  3  2  0
  2  8  1  0
  4  1  1  0
  4  7  1  0
  4 11  1  0
  6  2  1  0
 10  7  2  0
 11  5  1  0
 11  6  1  0
 12  7  1  0
M  END
$$$$

     RDKit          3D

 23 22  0  0  0  0  0  0  0  0999 V2000
   71.0420   39.4640   45.5520 O   0  0  0  0  0  0  0  0  0  0  0  0
   66.5160   41.8940   47.1510 C   0  0  0  0  0  0  0  0  0  0  0  0
   70.5220   39.9700   47.8650 C   0  0  0  0  0  0  0  0  0  0  0  0
   69.4390   41.4770   45.4720 C   0  0  0  0  0  0  0  0  0  0  0  0
   62.9780   42.6760   48.2500 C   0  0  0  0  0  0  0  0  0  0  0  0
   60.6270   42.5520   49.4000 C   0  0  0  0  0  0  0  0  0  0  0  0
   59.1600   40.5840   49.6890 C   0  0  0  0  0  0  0  0  0  0  0  0
   61.7130   41.8460   48.4940 C   0  0  0  0  0  0  0  0  0  0  0  0
   69.1950   40.3430   47.6080 C   0  0  0  0  0  0  0  0  0  0  0  0
   72.3810   40.7030   46.7400 O   0  0  0  0  0  0  0  0  0  0  0  0
   71.8620   41.3810   44.1720 C   0  0  0  0  0  0  0  0  0  0  0  0
   57.1880   39.5430   50.8070 C   0  0  0  0  0  0  0  0  0  0  0  0
   68.8130   41.0200   46.4930 C   0  0  0  0  0  0  0  0  0  0  0  0
   70.0310   42.9500   43.7590 N   0  0  0  0  0  0  0  0  0  0  0  0
   57.7760   41.9970   51.1860 N   0  0  0  0  0  0  0  0  0  0  0  0
   70.4710   41.7250   44.3710 C   0  0  0  0  0  0  0  0  0  0  0  0
   71.3330   40.1680   46.5520 C   0  0  0  0  0  0  0  0  0  0  0  0
   58.0920   40.6860   50.6450 C   0  0  0  0  0  0  0  0  0  0  0  0
   65.1940   42.0110   47.2970 C   0  0  0  0  0  0  0  0  0  0  0  0
   70.9490   39.2050   48.7590 O   0  0  0  0  0  0  0  0  0  0  0  0
   67.3400   40.9920   46.4590 C   0  0  0  0  0  0  0  0  0  0  0  0
   64.1960   42.3220   47.5620 C   0  0  0  0  0  0  0  0  0  0  0  0
   59.2520   41.9730   48.9470 C   0  0  0  0  0  0  0  0  0  0  0  0
  1 17  2  0
  2 19  1  0
  3 20  2  0
  4 13  2  0
  5  8  1  0
  7 18  1  0
  8  6  1  0
  9  3  1  0
 11 16  1  0
 13  9  1  0
 14 16  1  0
 16  4  2  0
 17 10  1  0
 17  3  1  0
 18 12  1  0
 18 15  1  0
 19 22  3  0
 21 13  1  0
 21  2  2  3
 22  5  1  0
 23  6  1  0
 23  7  1  0
M  END
$$$$

     RDKit          3D

 12 12  0  0  0  0  0  0  0  0999 V2000
   71.0320   43.0230   45.0750 C   0  0  0  0  0  0  0  0  0  0  0  0
   70.8400   44.8370   42.9620 S   0  0  0  0  0  0  0  0  0  0  0  0
   68.6520   42.4280   43.6170 C   0  0  0  0  0  0  0  0  0  0  0  0
   71.1070   42.1510   43.8640 C   0  0  0  0  0  0  0  0  0  0  0  0
   69.7770   41.7800   43.4550 N   0  0  0  0  0  0  0  0  0  0  0  0
   68.1650   43.3450   44.4790 O   0  0  0  0  0  0  0  0  0  0  0  0
   71.0470   44.2640   45.0270 C   0  0  0  0  0  0  0  0  0  0  0  0
   72.4650   42.2390   44.1140 C   0  0  0  0  0  0  0  0  0  0  0  0
   67.9510   42.7650   42.2840 N   0  0  0  0  0  0  0  0  0  0  0  0
   73.3000   43.3470   44.0390 O   0  0  0  0  0  0  0  0  0  0  0  0
   70.0110   40.5870   42.6480 C   0  0  0  0  0  0  0  0  0  0  0  0
   73.1380   41.7450   43.3550 O   0  0  0  0  0  0  0  0  0  0  0  0
  1  7  1  0
  2  7  1  0
  3  6  2  0
  4  5  1  0
  4  8  1  0
  4  1  1  0
  5  3  1  0
  8  1  1  0
  9  3  1  0
 10  8  1  0
 11  5  1  0
 12  8  1  0
M  END
$$$$
