
     RDKit          3D

 12 11  0  0  0  0  0  0  0  0999 V2000
   70.7490   43.3370   42.8690 C   0  0  0  0  0  0  0  0  0  0  0  0
   73.1170   43.9010   43.5230 C   0  0  0  0  0  0  0  0  0  0  0  0
   71.8850   43.7200   42.6680 O   0  0  0  0  0  0  0  0  0  0  0  0
   69.1480   45.2620   42.6900 C   0  0  0  0  0  0  0  0  0  0  0  0
   68.4200   43.3470   45.7730 P   0  0  0  0  0  0  0  0  0  0  0  0
   69.3170   43.1110   47.0220 O   0  0  0  0  0  0  0  0  0  0  0  0
   69.4730   43.9700   43.4710 C   0  0  0  0  0  0  0  0  0  0  0  0
   67.8360   44.7710   45.6360 O   0  0  0  0  0  0  0  0  0  0  0  0
   69.2190   42.9210   44.4750 O   0  0  0  0  0  0  0  0  0  0  0  0
   67.2270   42.2720   45.6880 O   0  0  0  0  0  0  0  0  0  0  0  0
   70.7050   42.1910   42.4290 O   0  0  0  0  0  0  0  0  0  0  0  0
   67.9360   46.1790   42.7490 N   0  0  0  0  0  0  0  0  0  0  0  0
  1  7  1  0
  3  1  1  0
  3  2  1  0
  4 12  1  0
  4  7  2  3
  5  6  1  0
  7  9  1  0
  8  5  2  0
  9  5  1  0
 10  5  1  0
 11  1  2  0
M  END
$$$$

     RDKit          3D

 19 20  0  0  0  0  0  0  0  0999 V2000
   68.7780   46.5250   44.0230 C   0  0  0  0  0  0  0  0  0  0  0  0
   67.4630   46.6580   44.6740 C   0  0  0  0  0  0  0  0  0  0  0  0
   66.8210   45.6010   45.2220 C   0  0  0  0  0  0  0  0  0  0  0  0
   65.4470   45.5830   45.4630 N   0  0  0  0  0  0  0  0  0  0  0  0
   64.6190   50.3430   46.0810 C   0  0  0  0  0  0  0  0  0  0  0  0
   67.1840   44.3310   45.6370 C   0  0  0  0  0  0  0  0  0  0  0  0
   70.8860   45.1170   43.5840 C   0  0  0  0  0  0  0  0  0  0  0  0
   66.9430   48.7550   43.7800 N   0  0  0  0  0  0  0  0  0  0  0  0
   69.4110   46.9180   43.0760 O   0  0  0  0  0  0  0  0  0  0  0  0
   68.4940   43.9600   45.0290 C   0  0  0  0  0  0  0  0  0  0  0  0
   65.6710   48.1030   45.4840 O   0  0  0  0  0  0  0  0  0  0  0  0
   65.2980   44.5600   46.4780 C   0  0  0  0  0  0  0  0  0  0  0  0
   71.4120   44.1040   43.8570 O   0  0  0  0  0  0  0  0  0  0  0  0
   66.1570   49.7640   44.1070 C   0  0  0  0  0  0  0  0  0  0  0  0
   66.6350   47.8250   44.5730 C   0  0  0  0  0  0  0  0  0  0  0  0
   69.9320   45.8090   44.5290 C   0  0  0  0  0  0  0  0  0  0  0  0
   65.4400   49.4370   45.2660 C   0  0  0  0  0  0  0  0  0  0  0  0
   66.0160   50.9550   43.2420 C   0  0  0  0  0  0  0  0  0  0  0  0
   66.1470   43.6720   46.2490 N   0  0  0  0  0  0  0  0  0  0  0  0
  1 16  1  0
  2  1  1  0
  3  2  1  0
  3  4  1  0
  3  6  1  0
  4 12  1  0
  6 10  1  0
  6 19  1  0
  7 13  2  0
  7 16  1  0
  8 14  1  0
  8 15  2  0
  9  1  2  0
 14 18  1  0
 14 17  1  0
 15  2  1  0
 15 11  1  0
 17 11  1  0
 17  5  1  0
 19 12  1  0
M  END
$$$$

     RDKit          3D

  8  8  0  0  0  0  0  0  0  0999 V2000
   66.9830   52.2590   42.1660 C   0  0  0  0  0  0  0  0  0  0  0  0
   67.3090   51.6160   44.3250 O   0  0  0  0  0  0  0  0  0  0  0  0
   67.5230   51.1880   41.1930 C   0  0  0  0  0  0  0  0  0  0  0  0
   66.0590   53.3280   41.8050 O   0  0  0  0  0  0  0  0  0  0  0  0
   66.0620   51.2460   44.7250 C   0  0  0  0  0  0  0  0  0  0  0  0
   66.1930   51.6830   43.3830 C   0  0  0  0  0  0  0  0  0  0  0  0
   65.8130   49.7840   44.6950 C   0  0  0  0  0  0  0  0  0  0  0  0
   66.7740   49.0470   44.0110 N   0  0  0  0  0  0  0  0  0  0  0  0
  1  3  1  0
  2  5  1  0
  4  1  1  0
  5  7  1  0
  6  1  1  0
  6  2  1  0
  6  5  1  0
  8  7  1  0
M  END
$$$$

     RDKit          3D

 11 10  0  0  0  0  0  0  0  0999 V2000
   60.9610   45.9050   45.4400 C   0  0  0  0  0  0  0  0  0  0  0  0
   64.8620   46.2660   43.3050 C   0  0  0  0  0  0  0  0  0  0  0  0
   63.7550   45.8490   44.2220 C   0  0  0  0  0  0  0  0  0  0  0  0
   62.5630   45.5420   43.6630 C   0  0  0  0  0  0  0  0  0  0  0  0
   65.8460   46.7610   42.8830 C   0  0  0  0  0  0  0  0  0  0  0  0
   61.5790   45.3370   44.5500 C   0  0  0  0  0  0  0  0  0  0  0  0
   60.0450   46.5150   46.4730 C   0  0  0  0  0  0  0  0  0  0  0  0
   67.0650   47.0400   42.8570 C   0  0  0  0  0  0  0  0  0  0  0  0
   67.6220   48.2480   42.6230 C   0  0  0  0  0  0  0  0  0  0  0  0
   63.7700   45.7430   45.6650 C   0  0  0  0  0  0  0  0  0  0  0  0
   62.8150   46.0750   46.5010 C   0  0  0  0  0  0  0  0  0  0  0  0
  1  7  1  0
  3  2  1  0
  3 10  1  0
  4  3  1  0
  4  6  1  0
  5  2  3  0
  6  1  1  0
  8  5  1  0
  9  8  2  0
 10 11  2  0
M  END
$$$$

     RDKit          3D

  8  7  0  0  0  0  0  0  0  0999 V2000
   70.6620   43.1260   44.2940 C   0  0  0  0  0  0  0  0  0  0  0  0
   68.6230   45.0910   42.5180 C   0  0  0  0  0  0  0  0  0  0  0  0
   71.2670   43.3600   44.9670 O   0  0  0  0  0  0  0  0  0  0  0  0
   71.0620   42.5160   43.1030 C   0  0  0  0  0  0  0  0  0  0  0  0
   69.1800   44.2540   43.7260 C   0  0  0  0  0  0  0  0  0  0  0  0
   68.0730   43.6940   44.2930 O   0  0  0  0  0  0  0  0  0  0  0  0
   67.2710   45.4870   42.4600 O   0  0  0  0  0  0  0  0  0  0  0  0
   68.6670   44.3300   41.4040 O   0  0  0  0  0  0  0  0  0  0  0  0
  1  3  2  0
  2  5  1  0
  4  1  1  0
  5  6  1  0
  5  1  1  0
  7  2  1  0
  8  2  1  0
M  END
$$$$

     RDKit          3D

  5  4  0  0  0  0  0  0  0  0999 V2000
   68.6860   42.5160   44.8700 C   0  0  0  0  0  0  0  0  0  0  0  0
   69.7980   43.2130   44.5310 C   0  0  0  0  0  0  0  0  0  0  0  0
   68.9740   41.1370   45.3070 C   0  0  0  0  0  0  0  0  0  0  0  0
   67.5530   43.3760   44.3650 C   0  0  0  0  0  0  0  0  0  0  0  0
   70.1300   44.2250   45.0000 C   0  0  0  0  0  0  0  0  0  0  0  0
  1  3  1  0
  2  1  1  0
  2  5  2  0
  4  1  1  0
M  END
$$$$

     RDKit          3D

 13 12  0  0  0  0  0  0  0  0999 V2000
   65.8490   47.2050   42.8790 C   0  0  0  0  0  0  0  0  0  0  0  0
   68.9260   49.7860   42.9720 O   0  0  0  0  0  0  0  0  0  0  0  0
   63.1310   46.1760   46.3020 C   0  0  0  0  0  0  0  0  0  0  0  0
   67.1070   49.0900   44.3570 C   0  0  0  0  0  0  0  0  0  0  0  0
   68.5140   48.8890   43.7360 C   0  0  0  0  0  0  0  0  0  0  0  0
   65.2060   46.8350   46.7080 C   0  0  0  0  0  0  0  0  0  0  0  0
   65.1960   46.1650   43.7940 C   0  0  0  0  0  0  0  0  0  0  0  0
   64.3600   45.7440   46.8630 O   0  0  0  0  0  0  0  0  0  0  0  0
   65.9420   48.6050   43.4970 C   0  0  0  0  0  0  0  0  0  0  0  0
   62.4630   45.5850   47.1030 O   0  0  0  0  0  0  0  0  0  0  0  0
   69.2320   47.8690   44.1260 O   0  0  0  0  0  0  0  0  0  0  0  0
   65.6390   46.4720   45.2780 C   0  0  0  0  0  0  0  0  0  0  0  0
   63.0660   46.9850   45.3950 O   0  0  0  0  0  0  0  0  0  0  0  0
  1  9  1  0
  1  7  1  0
  2  5  2  0
  3  8  1  0
  3 10  1  0
  5 11  1  0
  5  4  1  0
  6  8  1  0
  7 12  1  0
  9  4  1  0
 12  6  1  0
 13  3  2  0
M  END
$$$$

     RDKit          3D

 15 15  0  0  0  0  0  0  0  0999 V2000
   71.7190   45.4480   47.2070 C   0  0  0  0  0  0  0  0  0  0  0  0
   70.7390   46.4730   46.7280 C   0  0  0  0  0  0  0  0  0  0  0  0
   64.9660   44.1320   50.0470 C   0  0  0  0  0  0  0  0  0  0  0  0
   72.0050   43.4520   48.4890 O   0  0  0  0  0  0  0  0  0  0  0  0
   69.7030   44.7780   48.0000 C   0  0  0  0  0  0  0  0  0  0  0  0
   69.4660   45.9220   47.1040 N   0  0  0  0  0  0  0  0  0  0  0  0
   71.0490   44.4710   47.9590 C   0  0  0  0  0  0  0  0  0  0  0  0
   64.1910   44.2440   48.7170 C   0  0  0  0  0  0  0  0  0  0  0  0
   66.2530   44.7220   49.9560 C   0  0  0  0  0  0  0  0  0  0  0  0
   73.0200   45.2290   47.0020 F   0  0  0  0  0  0  0  0  0  0  0  0
   67.2760   45.0130   48.8850 C   0  0  0  0  0  0  0  0  0  0  0  0
   64.4010   43.5740   51.3070 C   0  0  0  0  0  0  0  0  0  0  0  0
   67.0560   46.2790   48.4090 O   0  0  0  0  0  0  0  0  0  0  0  0
   68.3400   44.2060   48.3970 C   0  0  0  0  0  0  0  0  0  0  0  0
   66.7550   44.9260   51.0910 O   0  0  0  0  0  0  0  0  0  0  0  0
  1  7  1  0
  2  6  1  0
  2  1  2  0
  3 12  1  0
  5 14  1  0
  6  5  2  0
  7  5  1  0
  7  4  1  0
  8  3  1  0
  9  3  1  0
  9 15  2  0
 10  1  1  0
 11 13  1  0
 11  9  1  0
 14 11  1  0
M  END
$$$$

     RDKit          3D

 21 21  0  0  0  0  0  0  0  0999 V2000
   65.1830   47.4810   45.0750 C   0  0  0  0  0  0  0  0  0  0  0  0
   66.4330   45.2910   44.3580 C   0  0  0  0  0  0  0  0  0  0  0  0
   68.3850   52.3530   42.0430 Cl  0  0  0  0  0  0  0  0  0  0  0  0
   65.4130   44.8890   45.4070 C   0  0  0  0  0  0  0  0  0  0  0  0
   67.9000   46.6110   43.0100 O   0  0  0  0  0  0  0  0  0  0  0  0
   65.3850   52.2350   44.5980 C   0  0  0  0  0  0  0  0  0  0  0  0
   66.8940   46.5810   43.7330 C   0  0  0  0  0  0  0  0  0  0  0  0
   66.7460   55.1360   42.1450 O   0  0  0  0  0  0  0  0  0  0  0  0
   63.3350   45.1620   46.9210 C   0  0  0  0  0  0  0  0  0  0  0  0
   64.8270   54.4320   42.7340 C   0  0  0  0  0  0  0  0  0  0  0  0
   66.3150   50.0980   44.5040 C   0  0  0  0  0  0  0  0  0  0  0  0
   67.1480   44.1890   43.9050 O   0  0  0  0  0  0  0  0  0  0  0  0
   64.5710   47.1140   46.0320 C   0  0  0  0  0  0  0  0  0  0  0  0
   66.3210   52.2930   43.5050 N   0  0  0  0  0  0  0  0  0  0  0  0
   65.3390   43.6780   45.6300 O   0  0  0  0  0  0  0  0  0  0  0  0
   66.1410   54.0120   42.1380 C   0  0  0  0  0  0  0  0  0  0  0  0
   66.1420   47.7120   44.1490 C   0  0  0  0  0  0  0  0  0  0  0  0
   66.5690   49.0880   43.6200 C   0  0  0  0  0  0  0  0  0  0  0  0
   64.3910   45.7090   46.1760 C   0  0  0  0  0  0  0  0  0  0  0  0
   65.3360   50.8080   45.0370 C   0  0  0  0  0  0  0  0  0  0  0  0
   66.9920   53.0350   42.9280 C   0  0  0  0  0  0  0  0  0  0  0  0
  1 13  2  0
  2 12  1  0
  2  4  1  0
  4 15  2  0
  4 19  1  0
  5  7  2  0
  6 20  1  0
  7 17  1  0
  7  2  1  0
 11 20  1  0
 13 19  1  0
 14  6  1  0
 16  8  1  0
 16 10  1  0
 16 21  1  0
 17  1  2  0
 18 17  1  0
 18 11  1  0
 19  9  1  0
 21  3  1  0
 21 14  1  0
M  END
$$$$

     RDKit          3D

 11 10  0  0  0  0  0  0  0  0999 V2000
   68.1970   45.0700   42.2880 C   0  0  0  0  0  0  0  0  0  0  0  0
   66.3330   48.5880   41.7410 C   0  0  0  0  0  0  0  0  0  0  0  0
   69.4650   45.2660   42.0880 O   0  0  0  0  0  0  0  0  0  0  0  0
   67.3550   46.9720   43.6700 O   0  0  0  0  0  0  0  0  0  0  0  0
   64.6190   48.8770   39.8920 O   0  0  0  0  0  0  0  0  0  0  0  0
   70.2160   44.9170   40.9790 C   0  0  0  0  0  0  0  0  0  0  0  0
   67.6470   46.6120   42.4870 C   0  0  0  0  0  0  0  0  0  0  0  0
   66.8550   47.3170   41.2700 C   0  0  0  0  0  0  0  0  0  0  0  0
   65.0950   50.5490   41.3690 O   0  0  0  0  0  0  0  0  0  0  0  0
   69.7630   45.4690   39.6180 O   0  0  0  0  0  0  0  0  0  0  0  0
   65.0780   49.1410   40.8610 C   0  0  0  0  0  0  0  0  0  0  0  0
  1  7  1  0
  3  1  1  0
  5 11  2  0
  6  3  1  0
  7  4  2  0
  8  2  1  0
  8  7  1  0
 10  6  1  0
 11  9  1  0
 11  2  1  0
M  END
$$$$

     RDKit          3D

 19 19  0  0  0  0  0  0  0  0999 V2000
   70.5660   48.7880   41.3070 C   0  0  0  0  0  0  0  0  0  0  0  0
   67.5340   44.5770   41.6940 N   0  0  0  0  0  0  0  0  0  0  0  0
   68.6170   42.1940   46.8040 C   0  0  0  0  0  0  0  0  0  0  0  0
   71.8800   49.6570   41.4720 O   0  0  0  0  0  0  0  0  0  0  0  0
   69.5980   46.6680   42.1350 N   0  0  0  0  0  0  0  0  0  0  0  0
   69.2570   50.6660   41.5710 C   0  0  0  0  0  0  0  0  0  0  0  0
   69.1890   42.8250   42.9330 O   0  0  0  0  0  0  0  0  0  0  0  0
   68.2370   50.1360   41.9520 O   0  0  0  0  0  0  0  0  0  0  0  0
   68.6380   43.6690   43.5890 C   0  0  0  0  0  0  0  0  0  0  0  0
   69.3120   45.7140   43.0980 C   0  0  0  0  0  0  0  0  0  0  0  0
   67.8980   43.3700   44.7640 O   0  0  0  0  0  0  0  0  0  0  0  0
   70.6600   50.1910   41.8960 C   0  0  0  0  0  0  0  0  0  0  0  0
   68.5370   40.9470   45.1790 C   0  0  0  0  0  0  0  0  0  0  0  0
   69.3590   51.4820   40.6080 O   0  0  0  0  0  0  0  0  0  0  0  0
   68.8090   42.3310   45.3350 C   0  0  0  0  0  0  0  0  0  0  0  0
   70.6040   47.6520   42.3480 C   0  0  0  0  0  0  0  0  0  0  0  0
   71.5150   47.5510   43.1640 O   0  0  0  0  0  0  0  0  0  0  0  0
   70.1910   45.4470   43.9590 O   0  0  0  0  0  0  0  0  0  0  0  0
   68.1140   44.9550   43.0410 C   0  0  0  0  0  0  0  0  0  0  0  0
  1  4  1  0
  1 12  1  0
  1 16  1  0
  4 12  1  0
  5 16  1  0
  5 10  1  0
  6  8  1  0
  7  9  2  0
  9 11  1  0
 10 18  2  0
 11 15  1  0
 12  6  1  0
 13 15  1  0
 14  6  2  0
 15  3  1  0
 16 17  2  0
 19  2  1  0
 19 10  1  0
 19  9  1  0
M  END
$$$$

     RDKit          3D

  9  8  0  0  0  0  0  0  0  0999 V2000
   70.1240   48.4360   39.5080 C   0  0  0  0  0  0  0  0  0  0  0  0
   69.3290   46.0870   43.6040 C   0  0  0  0  0  0  0  0  0  0  0  0
   68.6300   46.0100   42.2000 C   0  0  0  0  0  0  0  0  0  0  0  0
   69.1660   47.4470   40.2780 C   0  0  0  0  0  0  0  0  0  0  0  0
   69.5680   49.6920   38.8220 C   0  0  0  0  0  0  0  0  0  0  0  0
   68.6560   45.2950   44.7380 C   0  0  0  0  0  0  0  0  0  0  0  0
   68.9080   47.3890   41.5280 C   0  0  0  0  0  0  0  0  0  0  0  0
   69.6310   50.6310   38.3290 O   0  0  0  0  0  0  0  0  0  0  0  0
   69.1230   43.6320   44.5550 C   0  0  0  0  0  0  0  0  0  0  0  0
  1  4  1  0
  2  6  1  0
  3  2  1  0
  4  7  1  0
  5  1  2  0
  7  3  1  0
  8  5  2  0
  9  6  1  0
M  END
$$$$

     RDKit          3D

 14 14  0  0  0  0  0  0  0  0999 V2000
   69.1960   45.3110   46.6900 C   0  0  0  0  0  0  0  0  0  0  0  0
   67.7170   45.1780   46.7400 C   0  0  0  0  0  0  0  0  0  0  0  0
   71.1570   45.1340   48.1310 C   0  0  0  0  0  0  0  0  0  0  0  0
   69.8830   46.3970   45.9810 C   0  0  0  0  0  0  0  0  0  0  0  0
   66.0350   45.6260   48.4480 C   0  0  0  0  0  0  0  0  0  0  0  0
   65.0960   45.2110   49.1480 O   0  0  0  0  0  0  0  0  0  0  0  0
   67.2370   43.4560   48.6380 C   0  0  0  0  0  0  0  0  0  0  0  0
   69.2120   47.0330   44.7810 C   0  0  0  0  0  0  0  0  0  0  0  0
   69.8900   44.8450   47.7820 N   0  0  0  0  0  0  0  0  0  0  0  0
   71.8360   44.4410   48.9170 O   0  0  0  0  0  0  0  0  0  0  0  0
   71.8380   46.2190   47.5330 C   0  0  0  0  0  0  0  0  0  0  0  0
   65.8460   46.7310   47.9020 O   0  0  0  0  0  0  0  0  0  0  0  0
   71.2860   46.6240   46.3370 C   0  0  0  0  0  0  0  0  0  0  0  0
   67.2440   44.8200   48.1500 C   0  0  0  0  0  0  0  0  0  0  0  0
  1  2  1  0
  1  9  2  0
  2 14  1  0
  3 10  2  0
  4  8  1  0
  4 13  1  0
  4  1  1  0
  5  6  1  0
  9  3  1  0
 11  3  1  0
 12  5  2  0
 13 11  1  0
 14  5  1  0
 14  7  1  0
M  END
$$$$

     RDKit          3D

  1  0  0  0  0  0  0  0  0  0999 V2000
  -35.4970   62.1890   89.1940 C   0  0  0  0  0  0  0  0  0  0  0  0
M  END
$$$$

     RDKit          3D

  1  0  0  0  0  0  0  0  0  0999 V2000
 -106.6630  244.8320  257.1970 C   0  0  0  0  0  0  0  0  0  0  0  0
M  END
$$$$

     RDKit          3D

 12 11  0  0  0  0  0  0  0  0999 V2000
   69.3510   42.9000   43.8640 O   0  0  0  0  0  0  0  0  0  0  0  0
   64.1790   43.9670   45.0620 N   0  0  0  0  0  0  0  0  0  0  0  0
   71.0370   44.1040   43.7540 O   0  0  0  0  0  0  0  0  0  0  0  0
   69.8300   43.9900   43.5530 C   0  0  0  0  0  0  0  0  0  0  0  0
   65.1920   44.9870   44.7600 C   0  0  0  0  0  0  0  0  0  0  0  0
   64.5540   46.6910   42.8500 C   0  0  0  0  0  0  0  0  0  0  0  0
   68.9940   45.1550   43.1710 C   0  0  0  0  0  0  0  0  0  0  0  0
   67.5600   45.0030   43.5770 C   0  0  0  0  0  0  0  0  0  0  0  0
   69.3740   45.9280   42.2430 N   0  0  0  0  0  0  0  0  0  0  0  0
   65.1510   45.3250   43.2290 C   0  0  0  0  0  0  0  0  0  0  0  0
   64.5980   47.1230   41.3910 C   0  0  0  0  0  0  0  0  0  0  0  0
   66.6470   45.5730   42.7810 O   0  0  0  0  0  0  0  0  0  0  0  0
  4  3  2  0
  4  1  1  0
  5  2  1  0
  7  4  1  0
  7  8  1  0
  9  7  2  0
 10  6  1  0
 10  5  1  0
 11  6  1  0
 12 10  1  0
 12  8  1  0
M  END
$$$$

     RDKit          3D

  9  8  0  0  0  0  0  0  0  0999 V2000
   71.6880   41.7960   44.5020 O   0  0  0  0  0  0  0  0  0  0  0  0
   68.8680   46.4330   42.2660 C   0  0  0  0  0  0  0  0  0  0  0  0
   69.3520   45.9630   44.6590 O   0  0  0  0  0  0  0  0  0  0  0  0
   70.0110   43.5860   43.5090 C   0  0  0  0  0  0  0  0  0  0  0  0
   69.1180   45.6660   43.5280 C   0  0  0  0  0  0  0  0  0  0  0  0
   70.2860   41.9260   43.8050 P   0  0  0  0  0  0  0  0  0  0  0  0
   68.7560   44.1640   43.3530 N   0  0  0  0  0  0  0  0  0  0  0  0
   70.2250   41.2690   42.3430 O   0  0  0  0  0  0  0  0  0  0  0  0
   69.1640   41.2600   44.4620 O   0  0  0  0  0  0  0  0  0  0  0  0
  2  5  1  0
  4  6  1  0
  5  3  2  0
  6  9  1  0
  6  1  1  0
  7  4  1  0
  7  5  1  0
  8  6  2  0
M  END
$$$$

     RDKit          3D

  8  7  0  0  0  0  0  0  0  0999 V2000
   69.1910   44.7370   44.7590 O   0  0  0  0  0  0  0  0  0  0  0  0
   69.8760   43.0140   45.1090 P   0  0  0  0  0  0  0  0  0  0  0  0
   70.9560   43.1020   44.1400 O   0  0  0  0  0  0  0  0  0  0  0  0
   68.2780   44.5880   42.6020 C   0  0  0  0  0  0  0  0  0  0  0  0
   68.7030   45.0230   43.6670 C   0  0  0  0  0  0  0  0  0  0  0  0
   70.6870   43.2620   46.1990 O   0  0  0  0  0  0  0  0  0  0  0  0
   68.5130   42.4200   45.5060 O   0  0  0  0  0  0  0  0  0  0  0  0
   67.5020   45.2940   41.5880 O   0  0  0  0  0  0  0  0  0  0  0  0
  1  2  1  0
  2  7  1  0
  2  6  1  0
  3  2  2  0
  4  5  2  3
  5  1  1  0
  8  4  1  0
M  END
$$$$

     RDKit          3D

 20 20  0  0  0  0  0  0  0  0999 V2000
   67.6110   46.3500   47.6410 C   0  0  0  0  0  0  0  0  0  0  0  0
   77.7620   49.5480   43.1670 O   0  0  0  0  0  0  0  0  0  0  0  0
   76.6750   49.4830   42.8130 C   0  0  0  0  0  0  0  0  0  0  0  0
   75.9620   50.9630   44.5680 O   0  0  0  0  0  0  0  0  0  0  0  0
   63.5180   44.6250   50.0730 C   0  0  0  0  0  0  0  0  0  0  0  0
   61.2940   44.2130   51.1820 C   0  0  0  0  0  0  0  0  0  0  0  0
   69.0990   46.6240   47.7010 C   0  0  0  0  0  0  0  0  0  0  0  0
   69.8670   46.7320   46.4180 C   0  0  0  0  0  0  0  0  0  0  0  0
   70.8400   47.8780   46.1830 C   0  0  0  0  0  0  0  0  0  0  0  0
   66.9170   45.9380   48.8510 C   0  0  0  0  0  0  0  0  0  0  0  0
   72.4750   48.3720   44.2640 C   0  0  0  0  0  0  0  0  0  0  0  0
   74.4340   49.3470   43.6560 C   0  0  0  0  0  0  0  0  0  0  0  0
   60.9230   44.4500   52.7060 C   0  0  0  0  0  0  0  0  0  0  0  0
   64.7860   45.2880   49.9780 C   0  0  0  0  0  0  0  0  0  0  0  0
   60.0030   44.4150   51.3810 C   0  0  0  0  0  0  0  0  0  0  0  0
   65.7590   45.8630   49.5010 C   0  0  0  0  0  0  0  0  0  0  0  0
   71.6750   47.7350   44.9290 C   0  0  0  0  0  0  0  0  0  0  0  0
   62.5180   44.9030   50.9700 O   0  0  0  0  0  0  0  0  0  0  0  0
   75.5990   50.3040   43.6620 C   0  0  0  0  0  0  0  0  0  0  0  0
   73.5570   49.3770   44.9040 C   0  0  0  0  0  0  0  0  0  0  0  0
  1  7  2  3
  1 10  1  0
  3  2  2  0
  3 19  1  0
  5 18  1  0
  6 15  1  0
  6 13  1  0
  8  7  1  0
  9  8  1  0
 10 16  1  0
 11 20  1  0
 11 17  1  0
 12 19  1  0
 12 20  1  0
 14  5  1  0
 15 13  1  0
 16 14  3  0
 17  9  1  0
 18  6  1  0
 19  4  2  0
M  END
$$$$

     RDKit          3D

 24 24  0  0  0  0  0  0  0  0999 V2000
   71.9930   42.9400   51.2290 O   0  0  0  0  0  0  0  0  0  0  0  0
   63.7140   46.2420   40.3870 O   0  0  0  0  0  0  0  0  0  0  0  0
   68.7750   50.8110   45.0100 C   0  0  0  0  0  0  0  0  0  0  0  0
   68.6660   49.7130   47.7340 O   0  0  0  0  0  0  0  0  0  0  0  0
   71.5980   44.6780   53.2040 O   0  0  0  0  0  0  0  0  0  0  0  0
   69.4970   45.3030   49.8800 C   0  0  0  0  0  0  0  0  0  0  0  0
   69.8600   43.2190   52.6430 O   0  0  0  0  0  0  0  0  0  0  0  0
   67.5150   48.9420   44.1870 C   0  0  0  0  0  0  0  0  0  0  0  0
   68.0360   49.7480   45.4320 C   0  0  0  0  0  0  0  0  0  0  0  0
   68.0730   45.3500   49.6140 C   0  0  0  0  0  0  0  0  0  0  0  0
   65.3490   47.5130   42.9720 O   0  0  0  0  0  0  0  0  0  0  0  0
   65.7730   46.9760   44.1030 C   0  0  0  0  0  0  0  0  0  0  0  0
   64.1690   47.0100   41.0830 C   0  0  0  0  0  0  0  0  0  0  0  0
   67.2820   45.8300   48.4880 C   0  0  0  0  0  0  0  0  0  0  0  0
   67.2160   47.2370   45.8310 O   0  0  0  0  0  0  0  0  0  0  0  0
   70.5270   44.8460   50.7610 O   0  0  0  0  0  0  0  0  0  0  0  0
   68.1950   44.6030   50.3920 O   0  0  0  0  0  0  0  0  0  0  0  0
   67.9850   47.0570   48.0640 C   0  0  0  0  0  0  0  0  0  0  0  0
   68.4530   48.8710   46.5510 C   0  0  0  0  0  0  0  0  0  0  0  0
   66.9390   47.7540   44.6090 C   0  0  0  0  0  0  0  0  0  0  0  0
   67.6040   47.6460   46.9970 C   0  0  0  0  0  0  0  0  0  0  0  0
   65.5470   47.0200   41.6360 C   0  0  0  0  0  0  0  0  0  0  0  0
   68.0100   49.2650   43.1430 O   0  0  0  0  0  0  0  0  0  0  0  0
   71.1240   43.8300   51.9860 S   0  0  0  0  0  0  0  0  0  0  0  0
  1 24  1  0
  2 13  2  0
  3  9  2  0
  6 16  1  0
  8 20  1  0
  8  9  1  0
  9 19  1  0
 10  6  1  0
 10 17  2  0
 11 12  1  0
 13 22  1  0
 14 10  1  0
 15 21  1  0
 16 24  1  0
 18 14  1  0
 19 21  1  0
 19  4  1  0
 20 12  1  0
 20 15  1  0
 21 18  1  0
 22 11  1  0
 23  8  2  0
 24  7  1  0
 24  5  1  0
M  END
$$$$
