
     RDKit          3D

 11 11  0  0  0  0  0  0  0  0999 V2000
   69.0960   44.1310   41.5190 C   0  0  0  0  0  0  0  0  0  0  0  0
   66.9070   46.9370   42.0930 C   0  0  0  0  0  0  0  0  0  0  0  0
   66.0640   47.7230   41.6530 O   0  0  0  0  0  0  0  0  0  0  0  0
   68.6240   47.3370   43.2050 C   0  0  0  0  0  0  0  0  0  0  0  0
   68.5740   45.4240   41.9340 C   0  0  0  0  0  0  0  0  0  0  0  0
   68.8030   47.9460   44.4360 O   0  0  0  0  0  0  0  0  0  0  0  0
   67.4400   45.9300   41.3860 N   0  0  0  0  0  0  0  0  0  0  0  0
   69.3440   46.3630   42.4970 C   0  0  0  0  0  0  0  0  0  0  0  0
   70.0590   43.4820   41.8600 C   0  0  0  0  0  0  0  0  0  0  0  0
   70.8850   42.5940   42.0890 N   0  0  0  0  0  0  0  0  0  0  0  0
   67.3320   47.3510   43.2670 N   0  0  0  0  0  0  0  0  0  0  0  0
  1  9  1  0
  2 11  1  0
  3  2  2  0
  4 11  1  0
  4  6  2  0
  5  1  1  0
  5  8  1  0
  7  5  1  0
  7  2  1  0
  8  4  1  0
  9 10  3  0
M  END
$$$$

     RDKit          3D

 14 13  0  0  0  0  0  0  0  0999 V2000
   70.6280   39.5530   39.2470 N   0  0  0  0  0  0  0  0  0  0  0  0
   62.6170   41.5010   44.1150 C   0  0  0  0  0  0  0  0  0  0  0  0
   66.0740   42.8900   44.5320 C   0  0  0  0  0  0  0  0  0  0  0  0
   72.4140   39.8470   40.8980 C   0  0  0  0  0  0  0  0  0  0  0  0
   66.5360   43.3940   43.1960 C   0  0  0  0  0  0  0  0  0  0  0  0
   67.8330   41.8050   41.4520 C   0  0  0  0  0  0  0  0  0  0  0  0
   70.8250   39.8770   40.6030 C   0  0  0  0  0  0  0  0  0  0  0  0
   70.4590   40.9240   38.6280 C   0  0  0  0  0  0  0  0  0  0  0  0
   69.2630   41.4380   41.8750 C   0  0  0  0  0  0  0  0  0  0  0  0
   67.6290   42.6800   42.6280 C   0  0  0  0  0  0  0  0  0  0  0  0
   70.0270   40.4460   41.5440 C   0  0  0  0  0  0  0  0  0  0  0  0
   64.8620   42.0630   44.4270 C   0  0  0  0  0  0  0  0  0  0  0  0
   69.4970   38.6980   38.9350 C   0  0  0  0  0  0  0  0  0  0  0  0
   63.9810   42.0600   43.6220 N   0  0  0  0  0  0  0  0  0  0  0  0
  1  7  1  0
  5  3  1  0
  6  9  1  0
  6 10  1  0
  7  4  1  0
  7 11  1  0
  8  1  1  0
 10  5  1  0
 11  9  1  0
 12  3  1  0
 13  1  1  0
 14  2  1  0
 14 12  1  0
M  END
$$$$

     RDKit          3D

 19 20  0  0  0  0  0  0  0  0999 V2000
   71.3520   39.8770   38.2080 C   0  0  0  0  0  0  0  0  0  0  0  0
   67.6200   43.4720   39.9110 C   0  0  0  0  0  0  0  0  0  0  0  0
   71.5170   38.5430   38.7620 C   0  0  0  0  0  0  0  0  0  0  0  0
   69.5080   44.0950   38.2330 N   0  0  0  0  0  0  0  0  0  0  0  0
   67.1870   44.0080   42.2540 C   0  0  0  0  0  0  0  0  0  0  0  0
   69.6060   42.9500   38.9010 C   0  0  0  0  0  0  0  0  0  0  0  0
   68.8270   42.8840   39.9860 C   0  0  0  0  0  0  0  0  0  0  0  0
   65.8720   44.8100   44.4130 C   0  0  0  0  0  0  0  0  0  0  0  0
   69.8810   38.8800   40.5860 C   0  0  0  0  0  0  0  0  0  0  0  0
   66.5410   44.1600   43.1660 C   0  0  0  0  0  0  0  0  0  0  0  0
   70.2620   38.1460   39.3090 C   0  0  0  0  0  0  0  0  0  0  0  0
   66.7060   43.2500   41.0470 C   0  0  0  0  0  0  0  0  0  0  0  0
   69.7480   40.1470   40.0870 C   0  0  0  0  0  0  0  0  0  0  0  0
   69.2590   42.2880   41.0180 O   0  0  0  0  0  0  0  0  0  0  0  0
   65.7650   46.3510   44.6530 O   0  0  0  0  0  0  0  0  0  0  0  0
   66.2130   44.3780   45.4350 O   0  0  0  0  0  0  0  0  0  0  0  0
   64.8460   45.6810   43.9060 O   0  0  0  0  0  0  0  0  0  0  0  0
   70.3550   40.5580   38.8730 C   0  0  0  0  0  0  0  0  0  0  0  0
   70.1310   41.8500   38.3340 C   0  0  0  0  0  0  0  0  0  0  0  0
  1  3  1  0
  1 18  1  0
  2  7  1  0
  2 12  1  0
  3 11  1  0
  4  6  2  0
  5 10  1  0
  6  7  1  0
  7 14  2  0
  8 15  1  0
  8 16  1  0
 10  8  1  0
 11  9  1  0
 12  5  1  0
 13  9  1  0
 17  8  1  0
 17 15  1  0
 18 13  2  0
 19 18  1  0
 19  6  1  0
M  END
$$$$

     RDKit          3D

 10 10  0  0  0  0  0  0  0  0999 V2000
   71.3020   44.7170   42.3730 C   0  0  0  0  0  0  0  0  0  0  0  0
   69.3510   44.9690   44.6110 N   0  0  0  0  0  0  0  0  0  0  0  0
   71.5720   42.4090   40.1260 C   0  0  0  0  0  0  0  0  0  0  0  0
   69.8560   42.6310   41.8160 C   0  0  0  0  0  0  0  0  0  0  0  0
   71.3060   41.7250   39.1700 O   0  0  0  0  0  0  0  0  0  0  0  0
   70.1470   43.7570   42.5970 C   0  0  0  0  0  0  0  0  0  0  0  0
   72.1120   43.6090   40.2170 N   0  0  0  0  0  0  0  0  0  0  0  0
   71.8350   44.8470   40.9190 C   0  0  0  0  0  0  0  0  0  0  0  0
   71.1140   41.8870   41.5530 C   0  0  0  0  0  0  0  0  0  0  0  0
   69.4150   43.8880   43.9800 C   0  0  0  0  0  0  0  0  0  0  0  0
  1  6  1  0
  3  7  1  0
  3  9  1  0
  4  6  1  0
  5  3  2  0
  6 10  1  0
  7  8  1  0
  8  1  1  0
  9  4  1  0
 10  2  2  0
M  END
$$$$

     RDKit          3D

 29 30  0  0  0  0  0  0  0  0999 V2000
   63.1730   35.4120   38.7730 C   0  0  0  0  0  0  0  0  0  0  0  0
   66.7390   39.0410   39.7730 C   0  0  0  0  0  0  0  0  0  0  0  0
   68.5730   45.4270   40.0280 C   0  0  0  0  0  0  0  0  0  0  0  0
   64.7880   44.9550   40.5720 C   0  0  0  0  0  0  0  0  0  0  0  0
   72.2320   41.1780   39.4310 O   0  0  0  0  0  0  0  0  0  0  0  0
   71.5600   43.3310   40.0690 C   0  0  0  0  0  0  0  0  0  0  0  0
   63.1700   36.6640   39.0150 C   0  0  0  0  0  0  0  0  0  0  0  0
   70.3510   43.9880   39.5360 N   0  0  0  0  0  0  0  0  0  0  0  0
   67.3000   44.9500   40.6070 C   0  0  0  0  0  0  0  0  0  0  0  0
   68.0770   39.1640   39.0140 C   0  0  0  0  0  0  0  0  0  0  0  0
   64.4360   42.8530   41.5610 C   0  0  0  0  0  0  0  0  0  0  0  0
   68.6100   41.6290   39.2940 C   0  0  0  0  0  0  0  0  0  0  0  0
   65.4870   41.9160   41.5360 C   0  0  0  0  0  0  0  0  0  0  0  0
   69.4560   39.9760   41.0040 C   0  0  0  0  0  0  0  0  0  0  0  0
   64.9210   44.2360   41.5770 N   0  0  0  0  0  0  0  0  0  0  0  0
   63.4950   37.6730   39.9400 C   0  0  0  0  0  0  0  0  0  0  0  0
   66.3020   39.8770   40.7060 C   0  0  0  0  0  0  0  0  0  0  0  0
   68.9690   40.1550   39.8420 C   0  0  0  0  0  0  0  0  0  0  0  0
   63.3060   42.8120   42.5380 C   0  0  0  0  0  0  0  0  0  0  0  0
   71.1110   42.0340   39.4420 C   0  0  0  0  0  0  0  0  0  0  0  0
   65.6300   38.3990   39.1770 N   0  0  0  0  0  0  0  0  0  0  0  0
   72.8400   43.8230   39.6110 O   0  0  0  0  0  0  0  0  0  0  0  0
   69.7080   42.6570   39.1630 C   0  0  0  0  0  0  0  0  0  0  0  0
   62.9590   37.0700   41.3040 C   0  0  0  0  0  0  0  0  0  0  0  0
   64.8640   39.6100   40.9560 O   0  0  0  0  0  0  0  0  0  0  0  0
   66.0390   45.3490   39.7930 C   0  0  0  0  0  0  0  0  0  0  0  0
   63.6360   45.2760   40.3560 O   0  0  0  0  0  0  0  0  0  0  0  0
   64.5900   38.5210   40.0040 C   0  0  0  0  0  0  0  0  0  0  0  0
   69.7840   44.9670   40.4460 C   0  0  0  0  0  0  0  0  0  0  0  0
  1  7  2  0
  2 10  1  0
  2 17  1  0
  3 29  1  0
  3  9  1  0
  4 15  1  0
  6 22  1  0
  7 16  1  0
  8  6  1  0
  8 29  1  0
 10 18  1  0
 11 15  1  0
 11 19  1  0
 12 18  1  0
 13 11  1  0
 16 28  1  0
 16 24  1  0
 17 25  1  0
 18 14  2  0
 20  5  1  0
 20  6  1  0
 21  2  1  0
 21 28  2  0
 23 12  1  0
 23 20  1  0
 23  8  1  0
 26  4  1  0
 26  9  1  0
 27  4  2  0
 28 25  1  0
M  END
$$$$

     RDKit          3D

  6  5  0  0  0  0  0  0  0  0999 V2000
   71.1520   40.3630   43.4170 O   0  0  0  0  0  0  0  0  0  0  0  0
   71.5670   39.3440   40.1630 C   0  0  0  0  0  0  0  0  0  0  0  0
   69.6830   39.2410   42.6630 O   0  0  0  0  0  0  0  0  0  0  0  0
   70.8630   40.3300   41.0250 C   0  0  0  0  0  0  0  0  0  0  0  0
   70.6570   40.0360   42.3980 C   0  0  0  0  0  0  0  0  0  0  0  0
   71.8520   38.0180   40.6220 O   0  0  0  0  0  0  0  0  0  0  0  0
  2  6  1  0
  2  4  2  3
  4  5  1  0
  5  3  2  0
  5  1  1  0
M  END
$$$$

     RDKit          3D

 13 12  0  0  0  0  0  0  0  0999 V2000
   65.9720   43.1630   45.0990 C   0  0  0  0  0  0  0  0  0  0  0  0
   65.8520   41.2970   42.5300 O   0  0  0  0  0  0  0  0  0  0  0  0
   64.2710   44.6800   44.3900 C   0  0  0  0  0  0  0  0  0  0  0  0
   64.6560   39.0940   42.1500 C   0  0  0  0  0  0  0  0  0  0  0  0
   64.0630   46.8150   43.5190 O   0  0  0  0  0  0  0  0  0  0  0  0
   62.7320   46.2750   44.6950 O   0  0  0  0  0  0  0  0  0  0  0  0
   63.8340   45.9670   44.2530 C   0  0  0  0  0  0  0  0  0  0  0  0
   62.8140   42.6600   43.7330 O   0  0  0  0  0  0  0  0  0  0  0  0
   64.6480   41.4190   43.0290 C   0  0  0  0  0  0  0  0  0  0  0  0
   66.8590   42.2920   42.4710 C   0  0  0  0  0  0  0  0  0  0  0  0
   63.8150   40.1430   42.8520 C   0  0  0  0  0  0  0  0  0  0  0  0
   64.9160   43.5540   44.1200 N   0  0  0  0  0  0  0  0  0  0  0  0
   64.1600   42.5890   43.5110 C   0  0  0  0  0  0  0  0  0  0  0  0
  2  9  1  0
  4 11  1  0
  5  7  2  0
  7  3  1  0
  7  6  1  0
  9 11  1  0
  9 13  1  0
 10  2  1  0
 12  3  1  0
 12  1  1  0
 13  8  2  0
 13 12  1  0
M  END
$$$$

     RDKit          3D

 27 27  0  0  0  0  0  0  0  0999 V2000
   69.3650   44.9170   42.9050 O   0  0  0  0  0  0  0  0  0  0  0  0
   69.1150   44.6560   37.5840 O   0  0  0  0  0  0  0  0  0  0  0  0
   69.4370   41.4610   40.9580 C   0  0  0  0  0  0  0  0  0  0  0  0
   65.3870   40.6480   39.1240 C   0  0  0  0  0  0  0  0  0  0  0  0
   64.7200   39.4460   39.1990 C   0  0  0  0  0  0  0  0  0  0  0  0
   68.1360   45.2430   40.1010 C   0  0  0  0  0  0  0  0  0  0  0  0
   69.6900   48.3230   41.2560 O   0  0  0  0  0  0  0  0  0  0  0  0
   63.2690   35.8570   40.6040 O   0  0  0  0  0  0  0  0  0  0  0  0
   64.2110   38.5350   38.3160 C   0  0  0  0  0  0  0  0  0  0  0  0
   71.7000   48.4580   42.5610 O   0  0  0  0  0  0  0  0  0  0  0  0
   66.8360   40.6650   38.4990 C   0  0  0  0  0  0  0  0  0  0  0  0
   70.9310   47.8450   41.5570 P   0  0  0  0  0  0  0  0  0  0  0  0
   72.0000   48.0090   40.5240 O   0  0  0  0  0  0  0  0  0  0  0  0
   69.6860   42.4230   37.1370 C   0  0  0  0  0  0  0  0  0  0  0  0
   64.4260   39.2740   40.5090 C   0  0  0  0  0  0  0  0  0  0  0  0
   69.4080   43.5650   38.0890 C   0  0  0  0  0  0  0  0  0  0  0  0
   63.3860   37.1550   40.1060 C   0  0  0  0  0  0  0  0  0  0  0  0
   63.5210   37.3870   38.7110 C   0  0  0  0  0  0  0  0  0  0  0  0
   67.6220   41.8840   39.0060 C   0  0  0  0  0  0  0  0  0  0  0  0
   70.8690   45.9810   41.3820 C   0  0  0  0  0  0  0  0  0  0  0  0
   69.9850   44.7580   41.6790 C   0  0  0  0  0  0  0  0  0  0  0  0
   66.9190   43.0220   38.9990 O   0  0  0  0  0  0  0  0  0  0  0  0
   69.4720   43.2040   39.5500 C   0  0  0  0  0  0  0  0  0  0  0  0
   68.8550   41.8000   39.5940 C   0  0  0  0  0  0  0  0  0  0  0  0
   62.5160   34.9580   39.8160 C   0  0  0  0  0  0  0  0  0  0  0  0
   63.7990   38.1310   41.0070 C   0  0  0  0  0  0  0  0  0  0  0  0
   69.1350   44.2160   40.5630 C   0  0  0  0  0  0  0  0  0  0  0  0
  2 16  2  0
  4  5  1  0
  5 15  1  0
  7 12  1  0
  9 18  1  0
  9  5  2  0
 11 19  1  0
 11  4  1  0
 12 10  1  0
 13 12  2  0
 14 16  1  0
 15 26  2  0
 17  8  1  0
 17 26  1  0
 18 17  2  0
 19 22  1  0
 19 24  1  0
 20 12  1  0
 20 21  1  0
 21  1  1  0
 23 16  1  0
 23 24  1  0
 23 27  1  0
 24  3  1  0
 25  8  1  0
 27  6  1  0
 27 21  1  0
M  END
$$$$

     RDKit          3D

 22 23  0  0  0  0  0  0  0  0999 V2000
   70.3270   41.7550   40.1440 C   0  0  0  0  0  0  0  0  0  0  0  0
   71.7560   45.8200   38.7770 C   0  0  0  0  0  0  0  0  0  0  0  0
   68.6540   39.9230   39.8360 C   0  0  0  0  0  0  0  0  0  0  0  0
   68.8550   41.6520   42.1360 C   0  0  0  0  0  0  0  0  0  0  0  0
   65.6110   35.0030   40.8090 O   0  0  0  0  0  0  0  0  0  0  0  0
   66.4930   35.6890   40.1320 C   0  0  0  0  0  0  0  0  0  0  0  0
   67.9080   37.6720   39.9730 C   0  0  0  0  0  0  0  0  0  0  0  0
   66.8410   34.9370   38.9650 C   0  0  0  0  0  0  0  0  0  0  0  0
   68.8020   37.3630   39.1850 O   0  0  0  0  0  0  0  0  0  0  0  0
   68.9880   41.1540   40.6490 C   0  0  0  0  0  0  0  0  0  0  0  0
   72.1940   44.9190   41.1890 N   0  0  0  0  0  0  0  0  0  0  0  0
   65.9490   33.8630   38.6810 O   0  0  0  0  0  0  0  0  0  0  0  0
   69.5720   44.8500   39.0500 C   0  0  0  0  0  0  0  0  0  0  0  0
   67.0320   36.7970   40.5260 C   0  0  0  0  0  0  0  0  0  0  0  0
   72.3120   46.1710   40.8230 C   0  0  0  0  0  0  0  0  0  0  0  0
   71.2920   44.0540   40.4770 C   0  0  0  0  0  0  0  0  0  0  0  0
   71.0550   44.8180   39.4490 C   0  0  0  0  0  0  0  0  0  0  0  0
   72.6060   46.5920   39.5560 C   0  0  0  0  0  0  0  0  0  0  0  0
   73.5040   48.0060   39.3100 Cl  0  0  0  0  0  0  0  0  0  0  0  0
   70.2730   43.0510   40.8900 N   0  0  0  0  0  0  0  0  0  0  0  0
   67.8710   38.9520   40.5430 O   0  0  0  0  0  0  0  0  0  0  0  0
   69.7210   42.9380   42.2030 C   0  0  0  0  0  0  0  0  0  0  0  0
  1 10  1  0
  1 20  1  0
  2 17  2  0
  2 18  1  0
  3 21  1  0
  4 22  1  0
  6 14  2  3
  6  5  1  0
  7 14  1  0
  7 21  1  0
  8  6  1  0
  9  7  2  0
 10  3  1  0
 10  4  1  0
 12  8  1  0
 13 17  1  0
 15 11  1  0
 16 20  1  0
 16 11  2  0
 17 16  1  0
 18 15  2  0
 19 18  1  0
 20 22  1  0
M  END
$$$$

     RDKit          3D

  9  8  0  0  0  0  0  0  0  0999 V2000
   68.2670   44.0540   42.4730 C   0  0  0  0  0  0  0  0  0  0  0  0
   70.9420   42.4130   41.3560 O   0  0  0  0  0  0  0  0  0  0  0  0
   66.1680   43.1720   43.7660 C   0  0  0  0  0  0  0  0  0  0  0  0
   69.9950   42.9720   40.9010 C   0  0  0  0  0  0  0  0  0  0  0  0
   66.2640   45.2200   45.9110 S   0  0  0  0  0  0  0  0  0  0  0  0
   69.2580   44.5930   44.6320 C   0  0  0  0  0  0  0  0  0  0  0  0
   67.8300   44.5980   43.8530 C   0  0  0  0  0  0  0  0  0  0  0  0
   69.1100   43.9050   41.8210 C   0  0  0  0  0  0  0  0  0  0  0  0
   66.2680   44.6230   43.8190 C   0  0  0  0  0  0  0  0  0  0  0  0
  1  7  1  0
  4  2  2  0
  4  8  1  0
  7  6  1  0
  8  1  1  0
  9  3  1  0
  9  7  1  0
  9  5  1  0
M  END
$$$$

     RDKit          3D

 10  9  0  0  0  0  0  0  0  0999 V2000
   67.0520   46.2190   46.0030 C   0  0  0  0  0  0  0  0  0  0  0  0
   68.0370   45.8880   46.5990 O   0  0  0  0  0  0  0  0  0  0  0  0
   66.9530   43.1820   44.5430 O   0  0  0  0  0  0  0  0  0  0  0  0
   66.8390   46.6260   44.6080 C   0  0  0  0  0  0  0  0  0  0  0  0
   67.1460   44.9140   41.9880 C   0  0  0  0  0  0  0  0  0  0  0  0
   66.4840   44.1970   41.6410 O   0  0  0  0  0  0  0  0  0  0  0  0
   67.6940   44.2520   44.2290 C   0  0  0  0  0  0  0  0  0  0  0  0
   67.3170   47.9650   43.9990 C   0  0  0  0  0  0  0  0  0  0  0  0
   68.3030   45.2680   41.4440 O   0  0  0  0  0  0  0  0  0  0  0  0
   66.9310   45.3800   43.5120 C   0  0  0  0  0  0  0  0  0  0  0  0
  1  2  2  0
  4  8  1  0
  4  1  1  0
  5 10  1  0
  6  5  1  0
  7  3  1  0
  9  5  2  0
 10  7  1  0
 10  4  1  0
M  END
$$$$

     RDKit          3D

 20 20  0  0  0  0  0  0  0  0999 V2000
   61.7980   42.8490   43.5210 O   0  0  0  0  0  0  0  0  0  0  0  0
   68.1200   43.8960   39.5960 C   0  0  0  0  0  0  0  0  0  0  0  0
   68.0540   46.3570   40.2020 O   0  0  0  0  0  0  0  0  0  0  0  0
   68.5620   45.2960   40.1370 C   0  0  0  0  0  0  0  0  0  0  0  0
   62.9820   42.0010   43.5790 S   0  0  0  0  0  0  0  0  0  0  0  0
   64.4830   42.4140   41.0780 C   0  0  0  0  0  0  0  0  0  0  0  0
   69.4590   43.3340   39.9370 C   0  0  0  0  0  0  0  0  0  0  0  0
   72.0800   41.7740   40.9670 C   0  0  0  0  0  0  0  0  0  0  0  0
   71.2550   42.2920   39.9400 C   0  0  0  0  0  0  0  0  0  0  0  0
   67.1380   42.7220   39.3900 N   0  0  0  0  0  0  0  0  0  0  0  0
   66.7640   41.6440   40.2160 C   0  0  0  0  0  0  0  0  0  0  0  0
   63.8730   42.9860   42.3990 C   0  0  0  0  0  0  0  0  0  0  0  0
   71.8720   42.2140   38.5620 C   0  0  0  0  0  0  0  0  0  0  0  0
   69.8890   42.1450   39.8750 C   0  0  0  0  0  0  0  0  0  0  0  0
   64.3310   43.4520   39.9320 C   0  0  0  0  0  0  0  0  0  0  0  0
   67.3370   40.5870   40.2500 O   0  0  0  0  0  0  0  0  0  0  0  0
   70.4780   43.8900   40.6380 C   0  0  0  0  0  0  0  0  0  0  0  0
   65.7510   41.8770   41.3000 C   0  0  0  0  0  0  0  0  0  0  0  0
   63.8280   42.2570   44.8590 O   0  0  0  0  0  0  0  0  0  0  0  0
   62.8670   40.6740   43.2110 O   0  0  0  0  0  0  0  0  0  0  0  0
  1  5  1  0
  2  7  1  0
  2  4  1  0
  4  3  2  0
  5 19  1  0
  6 15  1  0
  6 18  1  0
  6 12  1  0
  7 17  1  0
  9 17  1  0
  9  8  1  0
 10  2  1  0
 10 11  1  0
 11 16  2  0
 11 18  1  0
 12  5  1  0
 13  9  1  0
 14  7  1  0
 14  9  1  0
 20  5  1  0
M  END
$$$$

     RDKit          3D

 14 15  0  0  0  0  0  0  0  0999 V2000
   65.0970   42.0210   42.9700 C   0  0  0  0  0  0  0  0  0  0  0  0
   66.0430   42.9840   42.2130 C   0  0  0  0  0  0  0  0  0  0  0  0
   70.2920   43.9250   42.3590 C   0  0  0  0  0  0  0  0  0  0  0  0
   61.7440   41.3550   42.9920 C   0  0  0  0  0  0  0  0  0  0  0  0
   63.9510   42.4990   43.3040 C   0  0  0  0  0  0  0  0  0  0  0  0
   63.0220   42.5190   44.4880 O   0  0  0  0  0  0  0  0  0  0  0  0
   65.4410   43.6450   41.3090 O   0  0  0  0  0  0  0  0  0  0  0  0
   69.3460   43.3640   41.6650 C   0  0  0  0  0  0  0  0  0  0  0  0
   69.6420   43.0740   43.5890 S   0  0  0  0  0  0  0  0  0  0  0  0
   71.2730   43.3160   41.5130 O   0  0  0  0  0  0  0  0  0  0  0  0
   68.2110   42.6640   41.3080 O   0  0  0  0  0  0  0  0  0  0  0  0
   68.2120   42.2310   43.3550 C   0  0  0  0  0  0  0  0  0  0  0  0
   62.7860   42.4550   43.1790 C   0  0  0  0  0  0  0  0  0  0  0  0
   67.3900   43.0910   42.4660 C   0  0  0  0  0  0  0  0  0  0  0  0
  2  1  1  0
  3 10  1  0
  3  9  1  0
  5  1  1  0
  5  6  1  0
  7  2  2  0
  8  3  1  0
 11  8  1  0
 11 14  1  0
 12  9  1  0
 13  4  1  0
 13  5  1  0
 13  6  1  0
 14  2  1  0
 14 12  1  0
M  END
$$$$

     RDKit          3D

 26 26  0  0  0  0  0  0  0  0999 V2000
   60.7790   47.1780   44.5690 O   0  0  0  0  0  0  0  0  0  0  0  0
   71.4950   35.8470   36.1700 C   0  0  0  0  0  0  0  0  0  0  0  0
   64.6730   45.0460   41.5990 C   0  0  0  0  0  0  0  0  0  0  0  0
   69.8000   37.6400   37.7520 C   0  0  0  0  0  0  0  0  0  0  0  0
   70.7760   38.0230   36.7850 C   0  0  0  0  0  0  0  0  0  0  0  0
   67.8870   40.3130   39.5580 C   0  0  0  0  0  0  0  0  0  0  0  0
   67.2040   40.9540   40.6920 C   0  0  0  0  0  0  0  0  0  0  0  0
   61.3610   46.7880   45.7190 C   0  0  0  0  0  0  0  0  0  0  0  0
   71.6920   37.3030   36.1750 N   0  0  0  0  0  0  0  0  0  0  0  0
   66.2460   43.2270   41.0360 C   0  0  0  0  0  0  0  0  0  0  0  0
   62.7140   46.0490   45.7010 C   0  0  0  0  0  0  0  0  0  0  0  0
   63.2940   44.2670   44.1600 O   0  0  0  0  0  0  0  0  0  0  0  0
   69.8820   38.8950   40.0230 C   0  0  0  0  0  0  0  0  0  0  0  0
   66.3260   45.5110   41.5670 C   0  0  0  0  0  0  0  0  0  0  0  0
   66.5290   42.1260   40.5000 C   0  0  0  0  0  0  0  0  0  0  0  0
   65.2900   46.7380   43.2940 O   0  0  0  0  0  0  0  0  0  0  0  0
   64.4280   46.1600   42.5890 C   0  0  0  0  0  0  0  0  0  0  0  0
   69.4020   40.2760   39.5520 C   0  0  0  0  0  0  0  0  0  0  0  0
   72.7060   37.8760   35.2640 C   0  0  0  0  0  0  0  0  0  0  0  0
   70.1090   35.5940   36.3730 C   0  0  0  0  0  0  0  0  0  0  0  0
   63.0600   45.3550   44.4700 C   0  0  0  0  0  0  0  0  0  0  0  0
   69.8080   36.1220   37.7650 C   0  0  0  0  0  0  0  0  0  0  0  0
   70.7220   38.1470   39.0150 C   0  0  0  0  0  0  0  0  0  0  0  0
   69.7930   40.7960   38.1830 C   0  0  0  0  0  0  0  0  0  0  0  0
   63.1090   46.5200   43.1600 C   0  0  0  0  0  0  0  0  0  0  0  0
   67.1500   44.3230   41.2840 C   0  0  0  0  0  0  0  0  0  0  0  0
  1  8  1  0
  2  9  1  0
  2 20  1  0
  3 17  1  0
  4 22  1  0
  4 23  1  0
  5  4  1  0
  6  7  1  0
  9  5  1  0
 10 26  1  0
 11  8  1  0
 12 21  2  0
 14  3  1  0
 15  7  1  0
 15 10  1  0
 17 25  1  0
 17 16  2  0
 18 24  1  0
 18  6  1  0
 18 13  1  0
 19  9  1  0
 20 22  1  0
 21 11  1  0
 23 13  1  0
 25 21  1  0
 26 14  1  0
M  END
$$$$

     RDKit          3D

 10  9  0  0  0  0  0  0  0  0999 V2000
   64.8710   47.6460   42.0670 O   0  0  0  0  0  0  0  0  0  0  0  0
   63.9890   49.1830   43.7540 O   0  0  0  0  0  0  0  0  0  0  0  0
   64.8690   47.2970   44.7400 O   0  0  0  0  0  0  0  0  0  0  0  0
   69.1090   46.0440   41.5520 C   0  0  0  0  0  0  0  0  0  0  0  0
   67.4210   46.8050   43.2200 N   0  0  0  0  0  0  0  0  0  0  0  0
   70.0550   44.9640   41.5840 O   0  0  0  0  0  0  0  0  0  0  0  0
   69.3910   46.2680   43.9310 O   0  0  0  0  0  0  0  0  0  0  0  0
   68.7680   46.4550   42.9860 C   0  0  0  0  0  0  0  0  0  0  0  0
   65.0330   48.0130   43.4600 P   0  0  0  0  0  0  0  0  0  0  0  0
   66.9430   48.1470   43.6050 C   0  0  0  0  0  0  0  0  0  0  0  0
  1  9  2  0
  4  6  1  0
  4  8  1  0
  5 10  1  0
  8  5  1  0
  8  7  2  0
  9 10  1  0
  9  2  1  0
  9  3  1  0
M  END
$$$$

     RDKit          3D

 15 16  0  0  0  0  0  0  0  0999 V2000
   65.9270   45.3910   43.3940 N   0  0  0  0  0  0  0  0  0  0  0  0
   63.1380   46.3640   44.0140 N   0  0  0  0  0  0  0  0  0  0  0  0
   67.1890   45.6640   41.2110 C   0  0  0  0  0  0  0  0  0  0  0  0
   63.8620   46.1830   45.0600 C   0  0  0  0  0  0  0  0  0  0  0  0
   65.6950   44.5230   44.3260 C   0  0  0  0  0  0  0  0  0  0  0  0
   67.8670   41.4700   41.6230 O   0  0  0  0  0  0  0  0  0  0  0  0
   64.5650   44.7870   45.3730 C   0  0  0  0  0  0  0  0  0  0  0  0
   68.6320   43.7320   40.6390 C   0  0  0  0  0  0  0  0  0  0  0  0
   67.2080   43.7010   42.9930 N   0  0  0  0  0  0  0  0  0  0  0  0
   66.8520   44.9330   42.5650 C   0  0  0  0  0  0  0  0  0  0  0  0
   66.5530   43.4660   44.1670 C   0  0  0  0  0  0  0  0  0  0  0  0
   68.1480   44.8720   40.4700 C   0  0  0  0  0  0  0  0  0  0  0  0
   69.5020   42.6250   42.8510 O   0  0  0  0  0  0  0  0  0  0  0  0
   69.8450   42.7930   39.7950 S   0  0  0  0  0  0  0  0  0  0  0  0
   68.2110   42.8250   42.0760 S   0  0  0  0  0  0  0  0  0  0  0  0
  1  5  1  0
  2  4  2  0
  3 10  1  0
  4  7  1  0
  5  7  1  0
  6 15  2  0
  8 15  1  0
  9 11  1  0
 10  9  1  0
 10  1  2  0
 11  5  2  0
 12  8  1  0
 12  3  2  0
 14  8  2  0
 15 13  2  0
 15  9  1  0
M  END
$$$$

     RDKit          3D

  7  6  0  0  0  0  0  0  0  0999 V2000
   70.7220   45.1770   39.8690 C   0  0  0  0  0  0  0  0  0  0  0  0
   71.0520   46.4990   38.9420 N   0  0  0  0  0  0  0  0  0  0  0  0
   68.7980   45.6610   40.7770 O   0  0  0  0  0  0  0  0  0  0  0  0
   70.8070   46.1440   41.6730 C   0  0  0  0  0  0  0  0  0  0  0  0
   71.9510   44.2970   40.0950 C   0  0  0  0  0  0  0  0  0  0  0  0
   72.1180   43.7940   39.2530 O   0  0  0  0  0  0  0  0  0  0  0  0
   70.2010   45.0330   40.7090 C   0  0  0  0  0  0  0  0  0  0  0  0
  1  2  1  0
  1  5  1  0
  1  7  1  0
  6  5  1  0
  7  3  1  0
  7  4  1  0
M  END
$$$$

     RDKit          3D

 22 24  0  0  0  0  0  0  0  0999 V2000
   67.5030   39.6200   39.9150 C   0  0  0  0  0  0  0  0  0  0  0  0
   62.5180   42.0430   43.3640 O   0  0  0  0  0  0  0  0  0  0  0  0
   72.5270   41.9660   38.6420 C   0  0  0  0  0  0  0  0  0  0  0  0
   68.3550   40.1060   39.0160 N   0  0  0  0  0  0  0  0  0  0  0  0
   64.1310   40.6890   42.1780 C   0  0  0  0  0  0  0  0  0  0  0  0
   71.1100   42.4770   38.2370 N   0  0  0  0  0  0  0  0  0  0  0  0
   65.0460   42.9950   42.9720 F   0  0  0  0  0  0  0  0  0  0  0  0
   66.4090   40.2680   40.6720 C   0  0  0  0  0  0  0  0  0  0  0  0
   65.5250   39.2030   41.0150 C   0  0  0  0  0  0  0  0  0  0  0  0
   68.8570   41.2750   38.4490 C   0  0  0  0  0  0  0  0  0  0  0  0
   64.3820   39.4930   41.6680 N   0  0  0  0  0  0  0  0  0  0  0  0
   68.7430   42.7540   38.9510 C   0  0  0  0  0  0  0  0  0  0  0  0
   67.2750   38.2550   39.9840 N   0  0  0  0  0  0  0  0  0  0  0  0
   61.9240   40.0480   43.0940 O   0  0  0  0  0  0  0  0  0  0  0  0
   66.2490   41.5260   41.2480 C   0  0  0  0  0  0  0  0  0  0  0  0
   66.0220   37.9680   40.5040 C   0  0  0  0  0  0  0  0  0  0  0  0
   70.9180   39.9700   38.0110 C   0  0  0  0  0  0  0  0  0  0  0  0
   72.4070   40.0650   37.6640 C   0  0  0  0  0  0  0  0  0  0  0  0
   73.1150   41.4640   37.8180 C   0  0  0  0  0  0  0  0  0  0  0  0
   62.6970   40.9530   42.8090 C   0  0  0  0  0  0  0  0  0  0  0  0
   70.3480   41.2790   38.4870 C   0  0  0  0  0  0  0  0  0  0  0  0
   65.0820   41.7550   41.9580 C   0  0  0  0  0  0  0  0  0  0  0  0
  1 13  2  0
  1  8  1  0
  4  1  1  0
  5 20  1  0
  6 21  1  0
  6  3  1  0
  8  9  2  0
  8 15  1  0
  9 11  1  0
 10 12  1  0
 10  4  1  0
 11  5  2  0
 13 16  1  0
 15 22  2  0
 16  9  1  0
 17 21  1  0
 18 19  1  0
 18 17  1  0
 19  3  1  0
 20 14  2  0
 20  2  1  0
 21 10  1  0
 22  5  1  0
 22  7  1  0
M  END
$$$$

     RDKit          3D

  8  8  0  0  0  0  0  0  0  0999 V2000
   71.0840   41.1140   43.4050 O   0  0  0  0  0  0  0  0  0  0  0  0
   70.1350   40.1310   41.4430 C   0  0  0  0  0  0  0  0  0  0  0  0
   68.7560   40.6510   41.2290 N   0  0  0  0  0  0  0  0  0  0  0  0
   69.5100   42.5540   42.0840 C   0  0  0  0  0  0  0  0  0  0  0  0
   70.8650   41.2370   42.2980 C   0  0  0  0  0  0  0  0  0  0  0  0
   71.3300   40.5020   40.2430 C   0  0  0  0  0  0  0  0  0  0  0  0
   68.3620   41.5600   42.2420 C   0  0  0  0  0  0  0  0  0  0  0  0
   70.7250   41.4970   39.4390 O   0  0  0  0  0  0  0  0  0  0  0  0
  2  6  1  0
  2  5  1  0
  3  2  1  0
  3  7  1  0
  4  7  1  0
  4  5  1  0
  5  1  1  0
  8  6  1  0
M  END
$$$$

     RDKit          3D

  6  5  0  0  0  0  0  0  0  0999 V2000
   69.8340   44.1710   43.9040 C   0  0  0  0  0  0  0  0  0  0  0  0
   70.8240   43.6580   42.8620 C   0  0  0  0  0  0  0  0  0  0  0  0
   69.2250   45.8450   42.2410 N   0  0  0  0  0  0  0  0  0  0  0  0
   68.8600   45.1430   43.3720 C   0  0  0  0  0  0  0  0  0  0  0  0
   71.9860   43.8770   42.4740 O   0  0  0  0  0  0  0  0  0  0  0  0
   70.4600   42.6450   42.7130 O   0  0  0  0  0  0  0  0  0  0  0  0
  2  1  1  0
  3  4  1  0
  4  1  1  0
  5  2  2  0
  6  2  1  0
M  END
$$$$
