
     RDKit          3D

 12 13  0  0  0  0  0  0  0  0999 V2000
   68.8790   41.1790   46.0910 C   0  0  0  0  0  0  0  0  0  0  0  0
   68.7990   43.5570   45.2300 C   0  0  0  0  0  0  0  0  0  0  0  0
   66.8850   41.9290   44.8640 O   0  0  0  0  0  0  0  0  0  0  0  0
   71.3610   40.4810   45.8380 N   0  0  0  0  0  0  0  0  0  0  0  0
   66.1070   41.8480   47.9070 N   0  0  0  0  0  0  0  0  0  0  0  0
   70.9390   42.4360   44.0240 N   0  0  0  0  0  0  0  0  0  0  0  0
   70.0880   40.8900   45.5350 C   0  0  0  0  0  0  0  0  0  0  0  0
   67.8680   42.2410   45.9430 S   0  0  0  0  0  0  0  0  0  0  0  0
   70.8940   41.5160   44.4620 C   0  0  0  0  0  0  0  0  0  0  0  0
   66.9260   42.3250   47.1880 C   0  0  0  0  0  0  0  0  0  0  0  0
   69.9500   43.5520   44.3740 C   0  0  0  0  0  0  0  0  0  0  0  0
   70.1680   44.6320   43.7010 O   0  0  0  0  0  0  0  0  0  0  0  0
  2  8  1  0
  6 11  1  0
  7  4  1  0
  7  1  1  0
  8  3  1  0
  8  1  1  0
  8 10  1  0
  9  6  1  0
  9  7  1  0
  9  4  1  0
 10  5  2  0
 11  2  1  0
 12 11  2  0
M  END
$$$$

     RDKit          3D

  9  9  0  0  0  0  0  0  0  0999 V2000
   71.0210   41.8630   42.7150 O   0  0  0  0  0  0  0  0  0  0  0  0
   70.0540   41.0900   43.4380 C   0  0  0  0  0  0  0  0  0  0  0  0
   66.6800   40.9840   46.9010 C   0  0  0  0  0  0  0  0  0  0  0  0
   67.2780   42.0350   46.0700 N   0  0  0  0  0  0  0  0  0  0  0  0
   66.6820   43.0980   45.9520 C   0  0  0  0  0  0  0  0  0  0  0  0
   68.4940   41.6210   45.4360 C   0  0  0  0  0  0  0  0  0  0  0  0
   68.9130   42.1830   44.0380 C   0  0  0  0  0  0  0  0  0  0  0  0
   68.5240   42.2230   46.7840 C   0  0  0  0  0  0  0  0  0  0  0  0
   69.6500   40.7830   42.2450 O   0  0  0  0  0  0  0  0  0  0  0  0
  1  2  1  0
  2  7  1  0
  4  8  1  0
  4  3  1  0
  5  4  1  0
  6  7  1  0
  6  4  1  0
  6  8  1  0
  9  2  1  0
M  END
$$$$

     RDKit          3D

 12 12  0  0  0  0  0  0  0  0999 V2000
   67.0970   41.5570   45.5180 C   0  0  0  0  0  0  0  0  0  0  0  0
   64.5900   41.3720   48.2690 O   0  0  0  0  0  0  0  0  0  0  0  0
   69.1320   41.5510   46.5030 C   0  0  0  0  0  0  0  0  0  0  0  0
   65.0510   41.4140   50.6110 O   0  0  0  0  0  0  0  0  0  0  0  0
   67.9250   40.6310   48.4660 C   0  0  0  0  0  0  0  0  0  0  0  0
   65.3790   40.8580   49.4240 P   0  0  0  0  0  0  0  0  0  0  0  0
   69.0370   42.8260   47.4260 O   0  0  0  0  0  0  0  0  0  0  0  0
   66.8430   41.3550   49.1000 O   0  0  0  0  0  0  0  0  0  0  0  0
   66.6130   40.9960   46.6890 O   0  0  0  0  0  0  0  0  0  0  0  0
   69.4100   41.4800   45.1490 O   0  0  0  0  0  0  0  0  0  0  0  0
   67.8700   40.9560   46.9400 C   0  0  0  0  0  0  0  0  0  0  0  0
   65.3170   39.4730   49.8150 O   0  0  0  0  0  0  0  0  0  0  0  0
  1  9  1  0
  1 11  1  0
  2  6  2  0
  3 11  1  0
  3  7  1  0
  5  8  1  0
  6 12  1  0
  6  4  1  0
  8  6  1  0
  9 11  1  0
 10  3  1  0
 11  5  1  0
M  END
$$$$

     RDKit          3D

  9  9  0  0  0  0  0  0  0  0999 V2000
   67.8490   42.6630   43.7260 S   0  0  0  0  0  0  0  0  0  0  0  0
   69.0500   40.5830   45.1600 C   0  0  0  0  0  0  0  0  0  0  0  0
   67.9610   43.8770   42.7040 O   0  0  0  0  0  0  0  0  0  0  0  0
   68.7330   41.2930   46.5070 O   0  0  0  0  0  0  0  0  0  0  0  0
   68.1810   39.5660   44.8720 O   0  0  0  0  0  0  0  0  0  0  0  0
   71.2320   39.8910   43.7620 O   0  0  0  0  0  0  0  0  0  0  0  0
   69.4500   41.6660   44.1560 C   0  0  0  0  0  0  0  0  0  0  0  0
   70.3820   40.7110   44.5040 C   0  0  0  0  0  0  0  0  0  0  0  0
   66.5890   42.0450   44.0500 O   0  0  0  0  0  0  0  0  0  0  0  0
  1  3  1  0
  1  9  2  0
  2  4  1  0
  5  2  1  0
  7  1  1  0
  7  8  1  0
  7  2  1  0
  8  6  1  0
  8  2  1  0
M  END
$$$$

     RDKit          3D

 17 17  0  0  0  0  0  0  0  0999 V2000
   71.1600   43.8940   43.7030 C   0  0  0  0  0  0  0  0  0  0  0  0
   68.6920   40.3970   45.0850 C   0  0  0  0  0  0  0  0  0  0  0  0
   71.1740   37.5250   44.3150 O   0  0  0  0  0  0  0  0  0  0  0  0
   70.6430   39.6690   43.5180 O   0  0  0  0  0  0  0  0  0  0  0  0
   70.8440   38.9050   44.6310 P   0  0  0  0  0  0  0  0  0  0  0  0
   71.7620   39.4280   45.8550 O   0  0  0  0  0  0  0  0  0  0  0  0
   69.4260   39.0780   47.1220 O   0  0  0  0  0  0  0  0  0  0  0  0
   70.5200   45.1940   43.2160 C   0  0  0  0  0  0  0  0  0  0  0  0
   72.0780   43.3600   43.2220 O   0  0  0  0  0  0  0  0  0  0  0  0
   70.0510   43.1720   44.4410 C   0  0  0  0  0  0  0  0  0  0  0  0
   68.1330   41.9250   46.8810 O   0  0  0  0  0  0  0  0  0  0  0  0
   68.9620   41.6780   45.7470 C   0  0  0  0  0  0  0  0  0  0  0  0
   68.9210   43.6190   44.5130 O   0  0  0  0  0  0  0  0  0  0  0  0
   70.3920   42.1110   45.3260 C   0  0  0  0  0  0  0  0  0  0  0  0
   69.3430   39.4050   45.8570 C   0  0  0  0  0  0  0  0  0  0  0  0
   69.2660   37.8290   46.4390 C   0  0  0  0  0  0  0  0  0  0  0  0
   67.4430   40.4090   44.5310 O   0  0  0  0  0  0  0  0  0  0  0  0
  1 10  1  0
  2 17  1  0
  2 12  1  0
  2 15  1  0
  3  5  1  0
  4  5  2  0
  5  6  1  0
  8  1  1  0
  9  1  2  0
 10 13  2  0
 10 14  1  0
 12 11  1  0
 14 12  1  0
 15  5  1  0
 15 16  1  0
 15  7  1  0
 16  7  1  0
M  END
$$$$

     RDKit          3D

 23 23  0  0  0  0  0  0  0  0999 V2000
   61.9880   42.6210   51.8230 O   0  0  0  0  0  0  0  0  0  0  0  0
   68.6170   41.1550   45.6160 C   0  0  0  0  0  0  0  0  0  0  0  0
   70.9550   40.6480   45.1320 C   0  0  0  0  0  0  0  0  0  0  0  0
   71.3300   42.3160   42.7670 O   0  0  0  0  0  0  0  0  0  0  0  0
   67.4430   41.1370   46.5940 C   0  0  0  0  0  0  0  0  0  0  0  0
   71.7320   41.5650   45.7450 O   0  0  0  0  0  0  0  0  0  0  0  0
   70.9900   40.2350   43.7290 C   0  0  0  0  0  0  0  0  0  0  0  0
   69.7630   40.1550   45.8740 C   0  0  0  0  0  0  0  0  0  0  0  0
   71.9490   40.8480   42.7380 C   0  0  0  0  0  0  0  0  0  0  0  0
   69.3040   38.7650   45.4790 C   0  0  0  0  0  0  0  0  0  0  0  0
   68.5800   38.3380   46.6450 N   0  0  0  0  0  0  0  0  0  0  0  0
   72.4680   40.9830   41.3130 C   0  0  0  0  0  0  0  0  0  0  0  0
   65.2670   41.0800   47.6240 N   0  0  0  0  0  0  0  0  0  0  0  0
   64.3600   41.6790   49.9420 C   0  0  0  0  0  0  0  0  0  0  0  0
   70.6020   38.8350   43.4740 O   0  0  0  0  0  0  0  0  0  0  0  0
   60.2210   41.7610   51.3510 O   0  0  0  0  0  0  0  0  0  0  0  0
   61.5270   40.1420   50.4410 O   0  0  0  0  0  0  0  0  0  0  0  0
   61.6490   41.5910   50.8150 P   0  0  0  0  0  0  0  0  0  0  0  0
   70.3480   38.0990   44.6740 C   0  0  0  0  0  0  0  0  0  0  0  0
   66.2050   40.3650   46.7390 C   0  0  0  0  0  0  0  0  0  0  0  0
   65.2390   41.7060   48.6830 C   0  0  0  0  0  0  0  0  0  0  0  0
   72.8910   40.8920   40.1720 C   0  0  0  0  0  0  0  0  0  0  0  0
   63.0700   41.9230   49.7940 O   0  0  0  0  0  0  0  0  0  0  0  0
  2  5  1  0
  3  6  1  0
  3  8  1  0
  5 20  1  0
  7  9  1  0
  7  3  1  0
  8  2  1  0
  9  4  1  0
 10  8  1  0
 10 11  1  0
 12  9  1  0
 13 21  1  0
 15  7  1  0
 15 19  1  0
 17 18  2  0
 18 16  1  0
 18  1  1  0
 19 10  1  0
 20 13  1  0
 21 14  1  0
 22 12  3  0
 23 14  1  0
 23 18  1  0
M  END
$$$$

     RDKit          3D

 14 14  0  0  0  0  0  0  0  0999 V2000
   67.1100   40.4370   47.2100 O   0  0  0  0  0  0  0  0  0  0  0  0
   69.5980   43.7790   43.2010 C   0  0  0  0  0  0  0  0  0  0  0  0
   69.1560   39.4370   47.7280 F   0  0  0  0  0  0  0  0  0  0  0  0
   68.7590   43.5080   42.0550 O   0  0  0  0  0  0  0  0  0  0  0  0
   68.7090   40.3200   46.8040 C   0  0  0  0  0  0  0  0  0  0  0  0
   70.4480   44.5850   43.9090 O   0  0  0  0  0  0  0  0  0  0  0  0
   68.5030   42.6600   46.0670 C   0  0  0  0  0  0  0  0  0  0  0  0
   68.3340   40.6550   44.5910 O   0  0  0  0  0  0  0  0  0  0  0  0
   68.8390   39.8530   45.4150 C   0  0  0  0  0  0  0  0  0  0  0  0
   70.3530   41.9440   42.9090 C   0  0  0  0  0  0  0  0  0  0  0  0
   68.6200   42.0950   44.7820 C   0  0  0  0  0  0  0  0  0  0  0  0
   68.7260   43.8510   46.4330 O   0  0  0  0  0  0  0  0  0  0  0  0
   68.7620   41.6360   46.9670 O   0  0  0  0  0  0  0  0  0  0  0  0
   69.2250   42.7010   43.7370 C   0  0  0  0  0  0  0  0  0  0  0  0
  2 14  1  0
  2  6  1  0
  4  2  2  0
  5 13  1  0
  5  1  1  0
  5  3  1  0
  7 12  2  0
  7 13  1  0
  8 11  1  0
  8  9  1  0
  9  5  1  0
 11 14  1  0
 11  7  1  0
 14 10  1  0
M  END
$$$$

     RDKit          3D

 11 10  0  0  0  0  0  0  0  0999 V2000
   69.2450   41.2640   45.3130 C   0  0  0  0  0  0  0  0  0  0  0  0
   72.1210   41.5270   44.0310 O   0  0  0  0  0  0  0  0  0  0  0  0
   68.7170   41.2630   46.7620 C   0  0  0  0  0  0  0  0  0  0  0  0
   69.1450   42.6980   44.9620 N   0  0  0  0  0  0  0  0  0  0  0  0
   70.6510   41.5390   43.3060 C   0  0  0  0  0  0  0  0  0  0  0  0
   69.9830   40.7890   44.4660 C   0  0  0  0  0  0  0  0  0  0  0  0
   67.3330   39.9610   48.8200 O   0  0  0  0  0  0  0  0  0  0  0  0
   66.7580   40.4750   47.9160 C   0  0  0  0  0  0  0  0  0  0  0  0
   67.3920   41.4980   46.9420 C   0  0  0  0  0  0  0  0  0  0  0  0
   65.3820   40.8010   47.8970 O   0  0  0  0  0  0  0  0  0  0  0  0
   70.3650   41.5590   42.2830 O   0  0  0  0  0  0  0  0  0  0  0  0
  1  4  1  0
  1  3  1  0
  3  9  1  0
  5  2  1  0
  5  6  1  0
  6  1  1  0
  8  7  1  0
  9  8  1  0
 10  8  2  0
 11  5  2  0
M  END
$$$$

     RDKit          3D

 11 11  0  0  0  0  0  0  0  0999 V2000
   69.4170   38.3570   45.3890 O   0  0  0  0  0  0  0  0  0  0  0  0
   69.2860   42.4340   43.7880 O   0  0  0  0  0  0  0  0  0  0  0  0
   70.0870   40.3650   42.7840 C   0  0  0  0  0  0  0  0  0  0  0  0
   70.7340   39.8640   44.0260 C   0  0  0  0  0  0  0  0  0  0  0  0
   68.4770   40.3500   44.6340 C   0  0  0  0  0  0  0  0  0  0  0  0
   68.2530   41.2130   45.9470 C   0  0  0  0  0  0  0  0  0  0  0  0
   68.7360   41.1140   43.3900 C   0  0  0  0  0  0  0  0  0  0  0  0
   67.5680   42.2860   45.8880 O   0  0  0  0  0  0  0  0  0  0  0  0
   69.7000   39.5670   45.0490 C   0  0  0  0  0  0  0  0  0  0  0  0
   70.5260   39.1820   41.9650 O   0  0  0  0  0  0  0  0  0  0  0  0
   68.6290   40.7440   47.0130 O   0  0  0  0  0  0  0  0  0  0  0  0
  3 10  1  0
  3  7  1  0
  3  4  1  0
  4  9  1  0
  5  9  1  0
  5  6  1  0
  6 11  1  0
  7  2  1  0
  7  5  1  0
  8  6  2  0
  9  1  1  0
M  END
$$$$

     RDKit          3D

  7  7  0  0  0  0  0  0  0  0999 V2000
   68.7510   42.6380   45.4620 C   0  0  0  0  0  0  0  0  0  0  0  0
   69.8260   42.1330   45.2190 C   0  0  0  0  0  0  0  0  0  0  0  0
   68.5840   41.3910   44.7180 C   0  0  0  0  0  0  0  0  0  0  0  0
   68.6000   40.0160   45.4200 C   0  0  0  0  0  0  0  0  0  0  0  0
   70.2740   42.5390   46.1450 O   0  0  0  0  0  0  0  0  0  0  0  0
   69.5660   39.9650   46.5140 O   0  0  0  0  0  0  0  0  0  0  0  0
   68.3190   38.7820   45.0840 O   0  0  0  0  0  0  0  0  0  0  0  0
  2  1  1  0
  2  5  1  0
  3  2  1  0
  3  4  1  0
  3  1  1  0
  4  6  1  0
  7  4  2  0
M  END
$$$$

     RDKit          3D

 14 14  0  0  0  0  0  0  0  0999 V2000
   69.1440   39.5920   44.1330 C   0  0  0  0  0  0  0  0  0  0  0  0
   69.8860   43.5060   45.7210 N   0  0  0  0  0  0  0  0  0  0  0  0
   72.8160   42.5950   46.0340 O   0  0  0  0  0  0  0  0  0  0  0  0
   71.7780   42.6190   45.4070 C   0  0  0  0  0  0  0  0  0  0  0  0
   70.7820   43.5090   46.3320 C   0  0  0  0  0  0  0  0  0  0  0  0
   69.8440   38.6260   44.0910 C   0  0  0  0  0  0  0  0  0  0  0  0
   72.9220   40.0340   44.9900 O   0  0  0  0  0  0  0  0  0  0  0  0
   71.5850   40.1430   44.8980 C   0  0  0  0  0  0  0  0  0  0  0  0
   68.7940   40.4780   43.2110 O   0  0  0  0  0  0  0  0  0  0  0  0
   70.8490   41.4990   45.1140 C   0  0  0  0  0  0  0  0  0  0  0  0
   69.6120   42.4090   44.8870 C   0  0  0  0  0  0  0  0  0  0  0  0
   71.2640   38.7840   44.0880 C   0  0  0  0  0  0  0  0  0  0  0  0
   68.4680   39.4010   45.0510 O   0  0  0  0  0  0  0  0  0  0  0  0
   69.4610   37.3820   43.6460 O   0  0  0  0  0  0  0  0  0  0  0  0
  1 13  1  0
  2  5  1  0
  4  3  1  0
  4  5  1  0
  6 14  1  0
  6  1  1  0
  8  7  1  0
  9  1  2  0
 10  8  1  0
 10  4  1  0
 11 10  1  0
 11  2  1  0
 12  6  1  0
 12  8  1  0
M  END
$$$$

     RDKit          3D

 12 11  0  0  0  0  0  0  0  0999 V2000
   66.6650   39.2380   47.6170 O   0  0  0  0  0  0  0  0  0  0  0  0
   62.3090   41.2000   53.2890 C   0  0  0  0  0  0  0  0  0  0  0  0
   65.9660   40.1860   51.5660 O   0  0  0  0  0  0  0  0  0  0  0  0
   64.8480   40.2390   50.8180 C   0  0  0  0  0  0  0  0  0  0  0  0
   61.4180   41.6320   53.7650 C   0  0  0  0  0  0  0  0  0  0  0  0
   63.0630   40.2430   52.5400 C   0  0  0  0  0  0  0  0  0  0  0  0
   63.4280   40.3500   51.3010 C   0  0  0  0  0  0  0  0  0  0  0  0
   66.8520   40.6160   47.7810 C   0  0  0  0  0  0  0  0  0  0  0  0
   66.6860   41.5900   46.7350 N   0  0  0  0  0  0  0  0  0  0  0  0
   64.4800   39.2160   53.4010 S   0  0  0  0  0  0  0  0  0  0  0  0
   66.3750   41.0090   49.0440 C   0  0  0  0  0  0  0  0  0  0  0  0
   65.0300   40.4670   49.3860 C   0  0  0  0  0  0  0  0  0  0  0  0
  1  8  2  0
  2  5  3  0
  4  7  2  3
  4  3  1  0
  6  2  1  0
  6 10  1  0
  7  6  1  0
  8 11  1  0
  9  8  1  0
 11 12  1  0
 12  4  1  0
M  END
$$$$

     RDKit          3D

 11 10  0  0  0  0  0  0  0  0999 V2000
   72.4000   39.5830   45.3110 C   0  0  0  0  0  0  0  0  0  0  0  0
   68.7430   41.4170   45.3060 O   0  0  0  0  0  0  0  0  0  0  0  0
   71.1910   41.6640   45.9550 C   0  0  0  0  0  0  0  0  0  0  0  0
   73.4160   39.8690   45.8890 O   0  0  0  0  0  0  0  0  0  0  0  0
   71.5450   40.7050   44.8990 C   0  0  0  0  0  0  0  0  0  0  0  0
   72.3240   38.4910   45.0150 O   0  0  0  0  0  0  0  0  0  0  0  0
   69.2290   43.2240   46.2580 O   0  0  0  0  0  0  0  0  0  0  0  0
   71.7040   42.7680   45.0320 C   0  0  0  0  0  0  0  0  0  0  0  0
   69.6210   41.8640   46.0260 C   0  0  0  0  0  0  0  0  0  0  0  0
   70.4190   39.9960   44.3180 O   0  0  0  0  0  0  0  0  0  0  0  0
   71.1200   41.2540   47.2640 O   0  0  0  0  0  0  0  0  0  0  0  0
  1  4  1  0
  2  9  2  0
  3  8  1  0
  3  9  1  0
  3 11  1  0
  5 10  1  0
  5  1  1  0
  5  3  1  0
  6  1  2  0
  9  7  1  0
M  END
$$$$

     RDKit          3D

 16 15  0  0  0  0  0  0  0  0999 V2000
   67.4760   42.2130   47.7240 C   0  0  0  0  0  0  0  0  0  0  0  0
   70.7500   39.1800   43.8260 C   0  0  0  0  0  0  0  0  0  0  0  0
   63.5050   40.7220   49.7050 C   0  0  0  0  0  0  0  0  0  0  0  0
   71.3150   39.9750   45.0040 C   0  0  0  0  0  0  0  0  0  0  0  0
   69.6650   43.1040   47.0020 C   0  0  0  0  0  0  0  0  0  0  0  0
   61.8230   42.3800   48.6900 C   0  0  0  0  0  0  0  0  0  0  0  0
   62.3750   42.4710   51.1000 C   0  0  0  0  0  0  0  0  0  0  0  0
   66.6990   41.0220   48.1910 C   0  0  0  0  0  0  0  0  0  0  0  0
   69.1230   40.7660   46.2470 C   0  0  0  0  0  0  0  0  0  0  0  0
   65.8800   40.5060   48.9580 C   0  0  0  0  0  0  0  0  0  0  0  0
   64.7890   41.0710   49.8140 C   0  0  0  0  0  0  0  0  0  0  0  0
   62.2630   41.5800   49.8190 C   0  0  0  0  0  0  0  0  0  0  0  0
   70.5900   41.0460   45.6690 C   0  0  0  0  0  0  0  0  0  0  0  0
   61.0600   41.0060   49.7630 O   0  0  0  0  0  0  0  0  0  0  0  0
   68.7490   41.8900   47.0900 N   0  0  0  0  0  0  0  0  0  0  0  0
   72.7180   40.2940   44.8070 O   0  0  0  0  0  0  0  0  0  0  0  0
  1  8  1  0
  3 11  1  0
  3 12  1  0
  4  2  1  0
  4 13  1  0
  5 15  1  0
  6 12  1  0
  8 10  1  0
  9 15  1  0
 10 11  1  0
 12  7  1  0
 13  9  1  0
 14 12  1  0
 15  1  1  0
 16  4  1  0
M  END
$$$$

     RDKit          3D

 11 12  0  0  0  0  0  0  0  0999 V2000
   68.9340   42.4890   45.8620 N   0  0  0  0  0  0  0  0  0  0  0  0
   69.9740   42.4460   43.7340 N   0  0  0  0  0  0  0  0  0  0  0  0
   71.1820   40.3270   43.5360 C   0  0  0  0  0  0  0  0  0  0  0  0
   72.3070   39.1770   44.6980 S   0  0  0  0  0  0  0  0  0  0  0  0
   70.3840   39.5740   44.6300 C   0  0  0  0  0  0  0  0  0  0  0  0
   70.1440   38.6420   45.8900 O   0  0  0  0  0  0  0  0  0  0  0  0
   68.0430   41.5750   46.5200 C   0  0  0  0  0  0  0  0  0  0  0  0
   69.4670   41.8570   44.8290 C   0  0  0  0  0  0  0  0  0  0  0  0
   69.1910   40.4820   44.9180 C   0  0  0  0  0  0  0  0  0  0  0  0
   68.2680   40.2600   45.9590 N   0  0  0  0  0  0  0  0  0  0  0  0
   67.1620   42.0390   47.1700 O   0  0  0  0  0  0  0  0  0  0  0  0
  1  7  1  0
  3  5  1  0
  3  4  1  0
  5  4  1  0
  5  9  1  0
  5  6  1  0
  7 11  2  0
  8  2  1  0
  8  9  1  0
  8  1  1  0
  9 10  1  0
 10  7  1  0
M  END
$$$$

     RDKit          3D

  6  5  0  0  0  0  0  0  0  0999 V2000
   70.9670   40.0030   42.2290 N   0  0  0  0  0  0  0  0  0  0  0  0
   70.7980   39.9070   43.4640 C   0  0  0  0  0  0  0  0  0  0  0  0
   69.8850   43.1090   46.5010 C   0  0  0  0  0  0  0  0  0  0  0  0
   70.1330   42.2310   44.2440 C   0  0  0  0  0  0  0  0  0  0  0  0
   70.4790   40.6900   44.6000 C   0  0  0  0  0  0  0  0  0  0  0  0
   70.4840   43.8030   44.8340 S   0  0  0  0  0  0  0  0  0  0  0  0
  1  2  2  0
  2  5  1  0
  4  5  1  0
  4  6  1  0
  6  3  1  0
M  END
$$$$

     RDKit          3D

 15 14  0  0  0  0  0  0  0  0999 V2000
   63.8630   40.3790   48.7160 C   0  0  0  0  0  0  0  0  0  0  0  0
   69.5130   39.9940   43.9790 O   0  0  0  0  0  0  0  0  0  0  0  0
   64.2960   40.5650   47.6860 O   0  0  0  0  0  0  0  0  0  0  0  0
   70.3160   43.5950   43.9850 O   0  0  0  0  0  0  0  0  0  0  0  0
   67.9450   40.0880   47.4170 C   0  0  0  0  0  0  0  0  0  0  0  0
   68.4230   41.8080   44.9960 C   0  0  0  0  0  0  0  0  0  0  0  0
   68.3200   40.7280   44.1070 C   0  0  0  0  0  0  0  0  0  0  0  0
   70.4980   44.4220   46.0710 O   0  0  0  0  0  0  0  0  0  0  0  0
   70.1870   43.4860   45.2990 C   0  0  0  0  0  0  0  0  0  0  0  0
   69.5500   42.4030   45.7540 N   0  0  0  0  0  0  0  0  0  0  0  0
   67.7680   41.4940   47.1780 O   0  0  0  0  0  0  0  0  0  0  0  0
   67.3540   41.7980   45.9740 O   0  0  0  0  0  0  0  0  0  0  0  0
   66.5340   39.6520   47.7660 C   0  0  0  0  0  0  0  0  0  0  0  0
   62.8500   40.1770   49.3880 O   0  0  0  0  0  0  0  0  0  0  0  0
   65.6020   40.8520   48.0120 C   0  0  0  0  0  0  0  0  0  0  0  0
  1 14  2  0
  2  7  1  0
  3 15  1  0
  3  1  1  0
  4  9  2  0
  5 13  1  0
  6  7  1  0
  6 10  1  0
  6 12  1  0
  9 10  1  0
  9  8  1  0
 11  5  1  0
 12 11  1  0
 13 15  1  0
M  END
$$$$

     RDKit          3D

 13 13  0  0  0  0  0  0  0  0999 V2000
   64.2370   41.0680   48.4650 C   0  0  0  0  0  0  0  0  0  0  0  0
   67.9000   41.7090   48.9580 C   0  0  0  0  0  0  0  0  0  0  0  0
   66.4530   42.9800   51.9930 N   0  0  0  0  0  0  0  0  0  0  0  0
   66.8010   40.9390   48.6290 C   0  0  0  0  0  0  0  0  0  0  0  0
   70.8550   40.8380   46.1510 O   0  0  0  0  0  0  0  0  0  0  0  0
   69.1910   41.3030   48.1480 C   0  0  0  0  0  0  0  0  0  0  0  0
   68.8790   40.1450   47.0410 N   0  0  0  0  0  0  0  0  0  0  0  0
   69.6100   39.6490   44.8010 N   0  0  0  0  0  0  0  0  0  0  0  0
   65.5600   41.4960   49.0190 C   0  0  0  0  0  0  0  0  0  0  0  0
   69.7050   39.9590   46.0450 C   0  0  0  0  0  0  0  0  0  0  0  0
   65.6120   42.3540   50.1160 N   0  0  0  0  0  0  0  0  0  0  0  0
   67.7910   42.5520   50.0900 C   0  0  0  0  0  0  0  0  0  0  0  0
   66.6160   42.6870   50.7650 C   0  0  0  0  0  0  0  0  0  0  0  0
  1  9  1  0
  2 12  2  0
  4  2  1  0
  4  9  1  0
  6  2  1  0
  7  6  1  0
  8 10  1  0
  9 11  2  0
 10  5  2  0
 10  7  1  0
 11 13  1  0
 12 13  1  0
 13  3  2  0
M  END
$$$$

     RDKit          3D

 11 10  0  0  0  0  0  0  0  0999 V2000
   70.8760   43.5770   42.8300 C   0  0  0  0  0  0  0  0  0  0  0  0
   69.6240   42.9660   43.6290 C   0  0  0  0  0  0  0  0  0  0  0  0
   68.7010   40.5240   43.9440 C   0  0  0  0  0  0  0  0  0  0  0  0
   68.7300   40.0090   45.5540 S   0  0  0  0  0  0  0  0  0  0  0  0
   68.1670   43.4590   42.8070 C   0  0  0  0  0  0  0  0  0  0  0  0
   69.5330   43.4230   45.1040 C   0  0  0  0  0  0  0  0  0  0  0  0
   69.5500   41.6570   43.5350 N   0  0  0  0  0  0  0  0  0  0  0  0
   68.1730   38.7500   45.7000 O   0  0  0  0  0  0  0  0  0  0  0  0
   71.2070   43.8780   41.1560 S   0  0  0  0  0  0  0  0  0  0  0  0
   69.8860   39.5280   46.0160 O   0  0  0  0  0  0  0  0  0  0  0  0
   68.1530   40.9520   46.4210 O   0  0  0  0  0  0  0  0  0  0  0  0
  1  2  1  0
  2  6  1  0
  3  4  1  0
  4  8  1  0
  4 10  1  0
  4 11  1  0
  5  2  1  0
  7  2  1  0
  7  3  1  0
  9  1  1  0
M  END
$$$$

     RDKit          3D

 18 19  0  0  0  0  0  0  0  0999 V2000
   61.0700   40.6460   53.3450 C   0  0  0  0  0  0  0  0  0  0  0  0
   61.9970   38.6330   52.1220 C   0  0  0  0  0  0  0  0  0  0  0  0
   66.5270   39.4240   49.2280 S   0  0  0  0  0  0  0  0  0  0  0  0
   70.4380   43.7190   45.2120 S   0  0  0  0  0  0  0  0  0  0  0  0
   70.1900   41.2360   44.3090 C   0  0  0  0  0  0  0  0  0  0  0  0
   71.3600   42.0610   45.4470 C   0  0  0  0  0  0  0  0  0  0  0  0
   69.0300   41.4510   45.3370 N   0  0  0  0  0  0  0  0  0  0  0  0
   63.2570   39.4030   51.9390 C   0  0  0  0  0  0  0  0  0  0  0  0
   63.3050   40.7920   52.2290 C   0  0  0  0  0  0  0  0  0  0  0  0
   64.8390   39.3910   49.9040 C   0  0  0  0  0  0  0  0  0  0  0  0
   62.5040   41.1320   53.4570 C   0  0  0  0  0  0  0  0  0  0  0  0
   68.9350   43.2450   44.2310 C   0  0  0  0  0  0  0  0  0  0  0  0
   66.4550   40.7730   48.0480 C   0  0  0  0  0  0  0  0  0  0  0  0
   68.5180   40.7120   46.5070 C   0  0  0  0  0  0  0  0  0  0  0  0
   67.3690   40.7680   47.0060 N   0  0  0  0  0  0  0  0  0  0  0  0
   64.4590   38.8160   51.2510 C   0  0  0  0  0  0  0  0  0  0  0  0
   61.2340   39.1380   53.3670 C   0  0  0  0  0  0  0  0  0  0  0  0
   68.2700   42.4120   45.2430 C   0  0  0  0  0  0  0  0  0  0  0  0
  1 17  1  0
  1 11  1  0
  2 17  1  0
  3 10  1  0
  4  6  1  0
  5  7  1  0
  5  6  1  0
  7 14  1  0
  8  2  1  0
  8  9  1  0
  9 11  1  0
 10 16  1  0
 12  4  1  0
 12 18  1  0
 13  3  1  0
 14 15  1  0
 15 13  1  0
 16  8  1  0
 18  7  1  0
M  END
$$$$
