
     RDKit          3D

 11 12  0  0  0  0  0  0  0  0999 V2000
   45.4460   91.6170   53.0030 C   0  0  0  0  0  0  0  0  0  0  0  0
   50.5390   93.5420   52.0200 O   0  0  0  0  0  0  0  0  0  0  0  0
   48.9920   91.6130   51.7880 C   0  0  0  0  0  0  0  0  0  0  0  0
   47.6840   91.3130   51.7610 C   0  0  0  0  0  0  0  0  0  0  0  0
   49.3400   93.1730   51.9270 C   0  0  0  0  0  0  0  0  0  0  0  0
   47.7190   90.0660   51.1230 N   0  0  0  0  0  0  0  0  0  0  0  0
   49.6700   90.6340   51.1270 C   0  0  0  0  0  0  0  0  0  0  0  0
   48.8720   89.6320   50.7950 N   0  0  0  0  0  0  0  0  0  0  0  0
   46.5970   92.2040   52.1500 C   0  0  0  0  0  0  0  0  0  0  0  0
   45.1610   92.4270   51.9220 C   0  0  0  0  0  0  0  0  0  0  0  0
   48.4860   93.9850   52.0480 O   0  0  0  0  0  0  0  0  0  0  0  0
  3  5  1  0
  4  3  1  0
  4  9  1  0
  5  2  2  0
  5 11  1  0
  6  4  1  0
  7  3  2  0
  8  6  2  0
  8  7  1  0
  9  1  1  0
 10  9  1  0
 10  1  1  0
M  END
$$$$

     RDKit          3D

 20 21  0  0  0  0  0  0  0  0999 V2000
   52.8790   89.6810   52.5110 C   0  0  0  0  0  0  0  0  0  0  0  0
   50.5030   89.5160   54.2080 O   0  0  0  0  0  0  0  0  0  0  0  0
   48.0650   89.4920   53.5770 C   0  0  0  0  0  0  0  0  0  0  0  0
   49.0100   89.6380   52.3950 N   0  0  0  0  0  0  0  0  0  0  0  0
   51.6300   91.3030   51.5740 C   0  0  0  0  0  0  0  0  0  0  0  0
   50.4160   89.4960   52.8080 C   0  0  0  0  0  0  0  0  0  0  0  0
   50.6640   92.3200   51.5280 C   0  0  0  0  0  0  0  0  0  0  0  0
   45.8060   87.9160   49.5730 N   0  0  0  0  0  0  0  0  0  0  0  0
   46.9550   88.5840   49.5510 C   0  0  0  0  0  0  0  0  0  0  0  0
   49.5900   89.1380   50.2780 O   0  0  0  0  0  0  0  0  0  0  0  0
   47.3120   89.2090   50.7410 C   0  0  0  0  0  0  0  0  0  0  0  0
   53.6580   90.5040   51.6150 C   0  0  0  0  0  0  0  0  0  0  0  0
   47.7510   88.6600   48.5470 O   0  0  0  0  0  0  0  0  0  0  0  0
   46.1910   87.7250   52.2150 O   0  0  0  0  0  0  0  0  0  0  0  0
   52.8940   91.3100   51.0270 N   0  0  0  0  0  0  0  0  0  0  0  0
   51.5550   90.1890   52.2780 C   0  0  0  0  0  0  0  0  0  0  0  0
   46.6690   89.8050   53.1290 C   0  0  0  0  0  0  0  0  0  0  0  0
   46.3200   89.0940   51.8350 C   0  0  0  0  0  0  0  0  0  0  0  0
   48.7290   89.2310   51.2070 C   0  0  0  0  0  0  0  0  0  0  0  0
   44.6880   88.2260   48.6750 C   0  0  0  0  0  0  0  0  0  0  0  0
  4  6  1  0
  4  3  1  0
  5  7  1  0
  5 16  1  0
  6  2  2  0
  9  8  1  0
 10 19  2  0
 11  9  1  0
 11 19  1  0
 11 18  1  0
 12  1  1  0
 13  9  2  0
 15  5  1  0
 15 12  1  0
 16  1  1  0
 16  6  1  0
 17  3  1  0
 18 14  1  0
 18 17  1  0
 19  4  1  0
 20  8  1  0
M  END
$$$$

     RDKit          3D

 15 16  0  0  0  0  0  0  0  0999 V2000
   52.4550   91.0760   52.1610 C   0  0  0  0  0  0  0  0  0  0  0  0
   51.8920   89.7580   52.2220 C   0  0  0  0  0  0  0  0  0  0  0  0
   48.4250   90.5970   51.2500 C   0  0  0  0  0  0  0  0  0  0  0  0
   47.2490   87.0650   52.3630 O   0  0  0  0  0  0  0  0  0  0  0  0
   50.5490   89.5470   52.0820 C   0  0  0  0  0  0  0  0  0  0  0  0
   46.0790   87.7910   51.6920 C   0  0  0  0  0  0  0  0  0  0  0  0
   49.6920   90.6480   51.7330 C   0  0  0  0  0  0  0  0  0  0  0  0
   46.5010   89.2860   51.5250 C   0  0  0  0  0  0  0  0  0  0  0  0
   51.5380   92.1380   51.9330 C   0  0  0  0  0  0  0  0  0  0  0  0
   46.3200   89.4350   48.8500 O   0  0  0  0  0  0  0  0  0  0  0  0
   48.2970   88.9120   49.7460 O   0  0  0  0  0  0  0  0  0  0  0  0
   46.2180   90.2030   50.1180 C   0  0  0  0  0  0  0  0  0  0  0  0
   47.8460   89.0770   51.0170 C   0  0  0  0  0  0  0  0  0  0  0  0
   47.0860   91.6800   50.9330 S   0  0  0  0  0  0  0  0  0  0  0  0
   50.2580   91.9090   51.7630 C   0  0  0  0  0  0  0  0  0  0  0  0
  1  2  1  0
  3  7  1  0
  5  2  2  0
  6  4  1  0
  7 15  2  0
  7  5  1  0
  8  6  1  0
  9  1  2  0
 12 10  1  0
 12 14  1  0
 12  8  1  0
 13 11  1  0
 13  3  1  0
 13  8  1  0
 14  3  1  0
 15  9  1  0
M  END
$$$$

     RDKit          3D

 12 13  0  0  0  0  0  0  0  0999 V2000
   47.4710   90.8890   50.6610 O   0  0  0  0  0  0  0  0  0  0  0  0
   49.5480   90.3960   50.0010 P   0  0  0  0  0  0  0  0  0  0  0  0
   50.8390   90.8930   50.9400 O   0  0  0  0  0  0  0  0  0  0  0  0
   49.3630   91.3420   48.9370 O   0  0  0  0  0  0  0  0  0  0  0  0
   48.1810   90.1130   52.3340 C   0  0  0  0  0  0  0  0  0  0  0  0
   47.3500   90.8840   53.1360 O   0  0  0  0  0  0  0  0  0  0  0  0
   47.6580   87.6760   52.9760 O   0  0  0  0  0  0  0  0  0  0  0  0
   48.3150   90.0150   50.9200 C   0  0  0  0  0  0  0  0  0  0  0  0
   48.0270   88.6050   50.5490 C   0  0  0  0  0  0  0  0  0  0  0  0
   49.9020   89.1010   49.5270 O   0  0  0  0  0  0  0  0  0  0  0  0
   47.2900   88.1220   54.4020 O   0  0  0  0  0  0  0  0  0  0  0  0
   47.3490   89.0430   52.8680 C   0  0  0  0  0  0  0  0  0  0  0  0
  1  8  1  0
  2  8  1  0
  2  3  1  0
  4  2  2  0
  5  8  1  0
  5 12  1  0
  5  6  1  0
  7 11  1  0
  8  9  1  0
 10  2  1  0
 12  7  1  0
 12  6  1  0
 12 11  1  0
M  END
$$$$

     RDKit          3D

 12 12  0  0  0  0  0  0  0  0999 V2000
   48.7780   88.7960   50.9680 O   0  0  0  0  0  0  0  0  0  0  0  0
   49.9320   90.9720   50.6370 O   0  0  0  0  0  0  0  0  0  0  0  0
   47.3770   88.6520   49.0290 O   0  0  0  0  0  0  0  0  0  0  0  0
   50.3580   90.1310   52.1370 C   0  0  0  0  0  0  0  0  0  0  0  0
   46.6300   89.5350   52.5550 C   0  0  0  0  0  0  0  0  0  0  0  0
   51.4750   89.2480   51.8350 O   0  0  0  0  0  0  0  0  0  0  0  0
   49.1110   89.4150   52.2980 C   0  0  0  0  0  0  0  0  0  0  0  0
   46.3640   88.9830   51.1660 C   0  0  0  0  0  0  0  0  0  0  0  0
   45.3220   88.4610   50.7890 O   0  0  0  0  0  0  0  0  0  0  0  0
   47.5230   89.2270   50.3290 C   0  0  0  0  0  0  0  0  0  0  0  0
   47.9440   90.0640   52.8770 O   0  0  0  0  0  0  0  0  0  0  0  0
   45.5630   89.3610   53.3690 O   0  0  0  0  0  0  0  0  0  0  0  0
  1  7  1  0
  2  4  1  0
  5 11  1  0
  5 12  2  0
  6  4  1  0
  7  4  1  0
  7 11  1  0
  8  5  1  0
  9  8  2  0
 10  3  1  0
 10  1  1  0
 10  8  1  0
M  END
$$$$

     RDKit          3D

 22 25  0  0  0  0  0  0  0  0999 V2000
   46.9700   86.5260   51.1900 C   0  0  0  0  0  0  0  0  0  0  0  0
   46.7110   88.4340   50.5130 C   0  0  0  0  0  0  0  0  0  0  0  0
   44.7790   89.4320   54.5490 N   0  0  0  0  0  0  0  0  0  0  0  0
   49.6820   90.2620   52.0920 O   0  0  0  0  0  0  0  0  0  0  0  0
   53.6320   91.4310   49.2560 N   0  0  0  0  0  0  0  0  0  0  0  0
   45.8700   86.9620   51.7280 C   0  0  0  0  0  0  0  0  0  0  0  0
   45.7980   88.2920   52.3630 C   0  0  0  0  0  0  0  0  0  0  0  0
   49.6640   90.7640   50.0220 C   0  0  0  0  0  0  0  0  0  0  0  0
   45.2910   90.8670   52.8960 C   0  0  0  0  0  0  0  0  0  0  0  0
   46.4850   88.1190   53.4470 O   0  0  0  0  0  0  0  0  0  0  0  0
   51.8430   91.2750   50.8450 N   0  0  0  0  0  0  0  0  0  0  0  0
   46.0800   89.1240   51.5660 C   0  0  0  0  0  0  0  0  0  0  0  0
   48.4090   90.3860   50.2390 O   0  0  0  0  0  0  0  0  0  0  0  0
   46.5380   90.5350   51.9370 C   0  0  0  0  0  0  0  0  0  0  0  0
   47.7210   87.7310   50.6590 C   0  0  0  0  0  0  0  0  0  0  0  0
   50.5560   89.5390   49.4570 C   0  0  0  0  0  0  0  0  0  0  0  0
   48.2450   90.7520   51.7320 C   0  0  0  0  0  0  0  0  0  0  0  0
   51.8320   90.4140   48.5370 C   0  0  0  0  0  0  0  0  0  0  0  0
   50.6010   90.7940   51.3250 C   0  0  0  0  0  0  0  0  0  0  0  0
   52.6110   91.0830   49.5710 C   0  0  0  0  0  0  0  0  0  0  0  0
   45.3020   89.5230   53.5090 C   0  0  0  0  0  0  0  0  0  0  0  0
   50.0630   91.9810   51.2700 O   0  0  0  0  0  0  0  0  0  0  0  0
  1  6  1  0
  2 15  1  0
  5 20  2  0
  6  7  1  0
  7 10  1  0
  7 21  1  0
  8 16  1  0
  8 13  1  0
  8 19  1  0
  9 21  1  0
 11 19  1  0
 12  2  1  0
 12 14  1  0
 12  7  1  0
 14  9  1  0
 15  1  1  0
 17 13  1  0
 17 14  1  0
 17  4  1  0
 18 16  1  0
 18 20  1  0
 19 22  1  0
 19  4  1  0
 20 11  1  0
 21  3  2  0
M  END
$$$$

     RDKit          3D

 19 19  0  0  0  0  0  0  0  0999 V2000
   48.6800   91.9460   52.6160 O   0  0  0  0  0  0  0  0  0  0  0  0
   50.1470   89.9030   52.0090 C   0  0  0  0  0  0  0  0  0  0  0  0
   45.5870   90.2710   48.8620 O   0  0  0  0  0  0  0  0  0  0  0  0
   47.3440   88.1210   52.1960 C   0  0  0  0  0  0  0  0  0  0  0  0
   52.9960   88.2630   51.2850 O   0  0  0  0  0  0  0  0  0  0  0  0
   45.0500   89.9640   50.9740 O   0  0  0  0  0  0  0  0  0  0  0  0
   53.1100   89.6880   51.1220 P   0  0  0  0  0  0  0  0  0  0  0  0
   47.4340   89.9850   50.4980 C   0  0  0  0  0  0  0  0  0  0  0  0
   48.8110   90.7460   52.3060 C   0  0  0  0  0  0  0  0  0  0  0  0
   48.0440   87.4700   51.4160 O   0  0  0  0  0  0  0  0  0  0  0  0
   53.2270   90.3910   52.4640 O   0  0  0  0  0  0  0  0  0  0  0  0
   47.5580   89.7120   52.0120 C   0  0  0  0  0  0  0  0  0  0  0  0
   50.5140   90.4050   50.7700 C   0  0  0  0  0  0  0  0  0  0  0  0
   45.9160   89.9880   50.0910 C   0  0  0  0  0  0  0  0  0  0  0  0
   46.5300   87.7010   52.8830 O   0  0  0  0  0  0  0  0  0  0  0  0
   48.2580   90.9950   49.8190 C   0  0  0  0  0  0  0  0  0  0  0  0
   54.1560   89.9440   50.1050 O   0  0  0  0  0  0  0  0  0  0  0  0
   51.8790   90.3430   50.3820 O   0  0  0  0  0  0  0  0  0  0  0  0
   49.6910   91.2480   50.1660 O   0  0  0  0  0  0  0  0  0  0  0  0
  2  9  1  0
  3 14  2  0
  4 15  1  0
  7  5  1  0
  7 11  1  0
  8 14  1  0
  8 12  1  0
  9  1  2  0
 10  4  2  0
 12  4  1  0
 12  9  1  0
 13 18  1  0
 13  2  1  0
 14  6  1  0
 16 19  1  0
 16  8  1  0
 17  7  2  0
 18  7  1  0
 19 13  1  0
M  END
$$$$

     RDKit          3D

 11 10  0  0  0  0  0  0  0  0999 V2000
   49.6690   89.9770   49.5360 C   0  0  0  0  0  0  0  0  0  0  0  0
   47.8280   89.7840   52.3820 O   0  0  0  0  0  0  0  0  0  0  0  0
   46.1920   88.8030   51.5220 O   0  0  0  0  0  0  0  0  0  0  0  0
   47.2190   87.9050   53.9210 O   0  0  0  0  0  0  0  0  0  0  0  0
   48.2130   89.9250   49.5460 O   0  0  0  0  0  0  0  0  0  0  0  0
   46.4650   91.7260   52.7580 O   0  0  0  0  0  0  0  0  0  0  0  0
   48.2090   87.3540   50.7440 O   0  0  0  0  0  0  0  0  0  0  0  0
   47.1560   88.5930   52.6560 P   0  0  0  0  0  0  0  0  0  0  0  0
   47.6100   91.2880   52.0190 P   0  0  0  0  0  0  0  0  0  0  0  0
   47.4500   88.6480   50.2010 P   0  0  0  0  0  0  0  0  0  0  0  0
   48.9900   91.8740   52.4790 O   0  0  0  0  0  0  0  0  0  0  0  0
  1  5  1  0
  2  8  1  0
  3  8  1  0
  5 10  1  0
  8  4  2  0
  9  2  1  0
  9 11  2  0
  9  6  2  0
 10  7  1  0
 10  3  1  0
M  END
$$$$

     RDKit          3D

 17 19  0  0  0  0  0  0  0  0999 V2000
   46.7640   89.1850   51.6250 C   0  0  0  0  0  0  0  0  0  0  0  0
   48.7350   90.0850   50.7200 N   0  0  0  0  0  0  0  0  0  0  0  0
   52.3340   91.2640   51.5010 C   0  0  0  0  0  0  0  0  0  0  0  0
   54.3750   90.8540   50.2930 C   0  0  0  0  0  0  0  0  0  0  0  0
   47.3280   87.5690   50.7040 C   0  0  0  0  0  0  0  0  0  0  0  0
   44.7380   89.0180   52.6990 O   0  0  0  0  0  0  0  0  0  0  0  0
   50.7100   91.1320   51.6310 C   0  0  0  0  0  0  0  0  0  0  0  0
   50.8690   89.4330   49.7030 C   0  0  0  0  0  0  0  0  0  0  0  0
   46.7100   90.4750   49.6570 O   0  0  0  0  0  0  0  0  0  0  0  0
   45.6950   88.0490   53.4240 C   0  0  0  0  0  0  0  0  0  0  0  0
   49.2920   89.1930   51.7820 C   0  0  0  0  0  0  0  0  0  0  0  0
   50.3190   89.7780   51.1020 C   0  0  0  0  0  0  0  0  0  0  0  0
   47.0510   88.2850   52.8260 C   0  0  0  0  0  0  0  0  0  0  0  0
   53.1400   90.0820   50.6380 C   0  0  0  0  0  0  0  0  0  0  0  0
   47.3730   89.8980   50.6520 C   0  0  0  0  0  0  0  0  0  0  0  0
   45.5380   89.9650   52.0490 C   0  0  0  0  0  0  0  0  0  0  0  0
   52.3700   89.2580   49.8160 C   0  0  0  0  0  0  0  0  0  0  0  0
  1  5  1  0
  1 16  1  0
  1 13  1  0
  2 12  1  0
  2 11  1  0
  3  7  1  0
  6 10  1  0
  8 17  1  0
  9 15  2  0
 12  8  1  0
 12  7  1  0
 12 11  1  0
 13 10  1  0
 14  4  1  0
 14  3  1  0
 15  2  1  0
 15  1  1  0
 16  6  1  0
 17 14  1  0
M  END
$$$$

     RDKit          3D

  3  2  0  0  0  0  0  0  0  0999 V2000
   47.1390   88.3710   49.9890 O   0  0  0  0  0  0  0  0  0  0  0  0
   48.9250   88.9240   51.2760 N   0  0  0  0  0  0  0  0  0  0  0  0
   48.3820   89.0760   49.9300 C   0  0  0  0  0  0  0  0  0  0  0  0
  3  1  1  0
  3  2  1  0
M  END
$$$$

     RDKit          3D

 12 14  0  0  0  0  0  0  0  0999 V2000
   50.0300   91.3920   51.5150 C   0  0  0  0  0  0  0  0  0  0  0  0
   47.7930   87.6580   51.4950 N   0  0  0  0  0  0  0  0  0  0  0  0
   47.8680   88.4280   50.4090 C   0  0  0  0  0  0  0  0  0  0  0  0
   51.9730   90.1330   50.0340 C   0  0  0  0  0  0  0  0  0  0  0  0
   46.5300   87.0370   51.4730 N   0  0  0  0  0  0  0  0  0  0  0  0
   49.0280   89.4170   50.0360 C   0  0  0  0  0  0  0  0  0  0  0  0
   50.8030   92.0920   50.4690 C   0  0  0  0  0  0  0  0  0  0  0  0
   52.0270   91.3970   50.5650 O   0  0  0  0  0  0  0  0  0  0  0  0
   50.6600   89.3320   49.9520 C   0  0  0  0  0  0  0  0  0  0  0  0
   46.7860   88.2440   49.6550 N   0  0  0  0  0  0  0  0  0  0  0  0
   49.8570   89.9110   51.3200 C   0  0  0  0  0  0  0  0  0  0  0  0
   46.0340   87.3680   50.3850 C   0  0  0  0  0  0  0  0  0  0  0  0
  3  2  2  0
  4  8  1  0
  5  2  1  0
  6  3  1  0
  6 11  1  0
  7  8  1  0
  7  1  1  0
  9  4  1  0
  9  6  1  0
  9 11  1  0
 10 12  1  0
 10  3  1  0
 11  1  1  0
 12  5  2  0
M  END
$$$$

     RDKit          3D

 14 15  0  0  0  0  0  0  0  0999 V2000
   49.8380   90.2510   50.4410 N   0  0  0  0  0  0  0  0  0  0  0  0
   47.7110   89.2110   51.1340 C   0  0  0  0  0  0  0  0  0  0  0  0
   45.4900   87.5750   53.5000 O   0  0  0  0  0  0  0  0  0  0  0  0
   50.6790   91.0300   52.6110 C   0  0  0  0  0  0  0  0  0  0  0  0
   49.6120   90.5670   51.8750 C   0  0  0  0  0  0  0  0  0  0  0  0
   52.0670   91.4800   50.4550 C   0  0  0  0  0  0  0  0  0  0  0  0
   48.4250   89.8550   52.4010 C   0  0  0  0  0  0  0  0  0  0  0  0
   48.5050   89.8470   49.9350 C   0  0  0  0  0  0  0  0  0  0  0  0
   48.4770   89.0930   53.6750 O   0  0  0  0  0  0  0  0  0  0  0  0
   45.7240   88.1670   52.3770 C   0  0  0  0  0  0  0  0  0  0  0  0
   46.6500   88.1460   51.8010 N   0  0  0  0  0  0  0  0  0  0  0  0
   50.8220   90.8980   49.5860 C   0  0  0  0  0  0  0  0  0  0  0  0
   45.1390   89.4560   52.7630 O   0  0  0  0  0  0  0  0  0  0  0  0
   52.0450   91.0270   51.9340 C   0  0  0  0  0  0  0  0  0  0  0  0
  1 12  1  0
  1  5  1  0
  2 11  1  0
  2  7  1  0
  5  7  1  0
  5  4  1  0
  6 14  1  0
  7  9  1  0
  8  1  1  0
  8  2  1  0
 10 13  1  0
 10  3  1  0
 11 10  1  0
 12  6  1  0
 14  4  1  0
M  END
$$$$

     RDKit          3D

 13 12  0  0  0  0  0  0  0  0999 V2000
   50.9940   90.3600   50.6970 O   0  0  0  0  0  0  0  0  0  0  0  0
   46.9260   88.2500   49.2950 O   0  0  0  0  0  0  0  0  0  0  0  0
   49.6360   89.0510   49.3100 O   0  0  0  0  0  0  0  0  0  0  0  0
   51.0010   89.1190   51.2170 C   0  0  0  0  0  0  0  0  0  0  0  0
   46.6800   88.8560   50.4620 C   0  0  0  0  0  0  0  0  0  0  0  0
   48.7000   88.6080   51.6430 O   0  0  0  0  0  0  0  0  0  0  0  0
   44.9920   89.4800   52.1190 O   0  0  0  0  0  0  0  0  0  0  0  0
   47.3720   88.5430   51.7390 C   0  0  0  0  0  0  0  0  0  0  0  0
   46.8540   90.7860   52.7310 O   0  0  0  0  0  0  0  0  0  0  0  0
   45.6770   90.5120   52.1730 C   0  0  0  0  0  0  0  0  0  0  0  0
   49.7650   88.5430   50.5640 C   0  0  0  0  0  0  0  0  0  0  0  0
   45.9050   91.2110   49.8300 N   0  0  0  0  0  0  0  0  0  0  0  0
   46.0120   89.9170   50.5640 C   0  0  0  0  0  0  0  0  0  0  0  0
  1  4  1  0
  5  2  1  0
  5 13  1  0
  5  8  1  0
  6  8  1  0
  7 10  1  0
 10  9  1  0
 11  3  1  0
 11  4  1  0
 11  6  1  0
 13 12  1  0
 13 10  1  0
M  END
$$$$

     RDKit          3D

 12 12  0  0  0  0  0  0  0  0999 V2000
   46.2240   87.9340   53.6150 O   0  0  0  0  0  0  0  0  0  0  0  0
   50.7080   90.1690   50.5520 C   0  0  0  0  0  0  0  0  0  0  0  0
   49.4970   88.8560   51.9880 O   0  0  0  0  0  0  0  0  0  0  0  0
   47.4160   89.9370   53.3000 O   0  0  0  0  0  0  0  0  0  0  0  0
   51.9650   89.8080   50.5130 O   0  0  0  0  0  0  0  0  0  0  0  0
   49.2970   91.1890   52.2820 C   0  0  0  0  0  0  0  0  0  0  0  0
   51.0870   92.3940   51.0820 O   0  0  0  0  0  0  0  0  0  0  0  0
   50.2660   91.3070   51.2810 C   0  0  0  0  0  0  0  0  0  0  0  0
   46.7330   89.0390   55.3410 O   0  0  0  0  0  0  0  0  0  0  0  0
   49.6390   89.1620   50.5050 C   0  0  0  0  0  0  0  0  0  0  0  0
   48.6590   89.8200   52.4950 C   0  0  0  0  0  0  0  0  0  0  0  0
   46.8870   88.8850   54.1170 C   0  0  0  0  0  0  0  0  0  0  0  0
  1 12  2  0
  2  5  1  0
  2  8  1  0
  3 11  1  0
  4 12  1  0
  6 11  1  0
  7  8  1  0
  8  6  2  0
 10  2  1  0
 10  3  1  0
 11  4  1  0
 12  9  1  0
M  END
$$$$

     RDKit          3D

 12 14  0  0  0  0  0  0  0  0999 V2000
   49.8720   89.0320   49.6540 C   0  0  0  0  0  0  0  0  0  0  0  0
   46.6450   89.8240   53.1160 C   0  0  0  0  0  0  0  0  0  0  0  0
   46.8710   89.8780   51.4190 C   0  0  0  0  0  0  0  0  0  0  0  0
   50.4230   90.5290   50.0530 C   0  0  0  0  0  0  0  0  0  0  0  0
   52.6220   91.2150   49.2400 C   0  0  0  0  0  0  0  0  0  0  0  0
   46.4610   89.4470   50.8250 O   0  0  0  0  0  0  0  0  0  0  0  0
   48.1600   89.7480   51.0980 C   0  0  0  0  0  0  0  0  0  0  0  0
   48.5640   91.3040   51.4020 C   0  0  0  0  0  0  0  0  0  0  0  0
   49.5310   90.9190   50.1070 C   0  0  0  0  0  0  0  0  0  0  0  0
   51.6320   90.6720   49.6230 C   0  0  0  0  0  0  0  0  0  0  0  0
   48.7550   89.3330   49.9510 C   0  0  0  0  0  0  0  0  0  0  0  0
   50.0470   92.1590   50.9620 O   0  0  0  0  0  0  0  0  0  0  0  0
  1  4  1  0
  3  2  1  0
  4 10  1  0
  4  9  1  0
  5 10  3  0
  6  3  1  0
  7  8  1  0
  7  3  1  0
  8 12  1  0
  9 12  1  0
  9  8  1  0
 11  1  1  0
 11  9  1  0
 11  7  1  0
M  END
$$$$

     RDKit          3D

 13 12  0  0  0  0  0  0  0  0999 V2000
   48.3720   89.3670   50.9190 N   0  0  0  0  0  0  0  0  0  0  0  0
   47.5160   92.8430   51.9000 C   0  0  0  0  0  0  0  0  0  0  0  0
   46.0610   88.4270   50.0150 S   0  0  0  0  0  0  0  0  0  0  0  0
   48.7950   91.9310   52.0260 C   0  0  0  0  0  0  0  0  0  0  0  0
   49.8170   91.4600   50.9580 C   0  0  0  0  0  0  0  0  0  0  0  0
   47.7390   94.0030   52.6650 O   0  0  0  0  0  0  0  0  0  0  0  0
   48.3160   88.7160   48.7280 O   0  0  0  0  0  0  0  0  0  0  0  0
   50.9900   91.5910   51.5510 O   0  0  0  0  0  0  0  0  0  0  0  0
   47.1680   92.9290   50.5520 O   0  0  0  0  0  0  0  0  0  0  0  0
   47.7890   88.3820   50.0100 C   0  0  0  0  0  0  0  0  0  0  0  0
   49.5500   89.9790   50.3690 C   0  0  0  0  0  0  0  0  0  0  0  0
   48.4180   90.8890   52.9290 O   0  0  0  0  0  0  0  0  0  0  0  0
   50.7360   89.1240   50.5500 O   0  0  0  0  0  0  0  0  0  0  0  0
  2  4  1  0
  2  6  1  0
  4 12  1  0
  5  8  1  0
  5  4  1  0
  9  2  1  0
 10  7  1  0
 10  3  1  0
 10  1  1  0
 11 13  1  0
 11  1  1  0
 11  5  1  0
M  END
$$$$

     RDKit          3D

 17 17  0  0  0  0  0  0  0  0999 V2000
   45.7060   87.6740   53.1790 O   0  0  0  0  0  0  0  0  0  0  0  0
   43.6400   90.6210   51.6360 O   0  0  0  0  0  0  0  0  0  0  0  0
   49.3400   89.8920   51.6190 O   0  0  0  0  0  0  0  0  0  0  0  0
   51.1900   90.5950   50.7560 C   0  0  0  0  0  0  0  0  0  0  0  0
   50.7600   90.0010   51.8770 C   0  0  0  0  0  0  0  0  0  0  0  0
   49.6470   92.9120   51.1210 O   0  0  0  0  0  0  0  0  0  0  0  0
   47.7660   88.2960   54.1690 O   0  0  0  0  0  0  0  0  0  0  0  0
   52.2900   90.8980   50.3730 O   0  0  0  0  0  0  0  0  0  0  0  0
   45.9900   90.2820   52.3600 C   0  0  0  0  0  0  0  0  0  0  0  0
   48.4780   90.6310   52.3080 C   0  0  0  0  0  0  0  0  0  0  0  0
   47.1450   90.4110   51.4960 O   0  0  0  0  0  0  0  0  0  0  0  0
   48.0940   90.0250   53.5910 O   0  0  0  0  0  0  0  0  0  0  0  0
   46.0600   88.9640   53.2320 C   0  0  0  0  0  0  0  0  0  0  0  0
   44.7780   89.8100   51.4460 C   0  0  0  0  0  0  0  0  0  0  0  0
   47.4250   89.0740   53.6690 C   0  0  0  0  0  0  0  0  0  0  0  0
   51.7640   88.8620   52.0740 O   0  0  0  0  0  0  0  0  0  0  0  0
   50.2050   91.7600   50.5740 C   0  0  0  0  0  0  0  0  0  0  0  0
  3  5  1  0
  4  5  1  0
  5 16  1  0
  8  4  2  0
  9 14  1  0
  9 13  1  0
 10  3  1  0
 10 12  1  0
 11 10  1  0
 11  9  1  0
 12 15  1  0
 13  1  1  0
 13 15  1  0
 14  2  1  0
 15  7  2  0
 17  4  1  0
 17  6  1  0
M  END
$$$$

     RDKit          3D

 28 30  0  0  0  0  0  0  0  0999 V2000
   53.0440   88.6530   51.2670 N   0  0  0  0  0  0  0  0  0  0  0  0
   51.0650   90.2820   51.6550 C   0  0  0  0  0  0  0  0  0  0  0  0
   48.4700   90.5290   52.3330 C   0  0  0  0  0  0  0  0  0  0  0  0
   52.6870   87.3640   49.3260 O   0  0  0  0  0  0  0  0  0  0  0  0
   53.9210   86.5200   50.9220 N   0  0  0  0  0  0  0  0  0  0  0  0
   44.5750   91.0460   50.7020 O   0  0  0  0  0  0  0  0  0  0  0  0
   46.9320   88.0740   52.0630 C   0  0  0  0  0  0  0  0  0  0  0  0
   51.6880   88.9580   51.1350 C   0  0  0  0  0  0  0  0  0  0  0  0
   45.1520   87.8940   53.4770 O   0  0  0  0  0  0  0  0  0  0  0  0
   51.7350   91.3370   52.0500 O   0  0  0  0  0  0  0  0  0  0  0  0
   53.3070   87.4220   50.4050 C   0  0  0  0  0  0  0  0  0  0  0  0
   54.9380   88.0040   52.4500 C   0  0  0  0  0  0  0  0  0  0  0  0
   49.3830   88.9170   50.9550 C   0  0  0  0  0  0  0  0  0  0  0  0
   54.8390   86.6190   51.9110 C   0  0  0  0  0  0  0  0  0  0  0  0
   45.2220   89.6500   50.1880 P   0  0  0  0  0  0  0  0  0  0  0  0
   45.5830   87.4040   52.2300 C   0  0  0  0  0  0  0  0  0  0  0  0
   55.7910   88.1270   53.3730 O   0  0  0  0  0  0  0  0  0  0  0  0
   46.3180   90.2760   51.0160 O   0  0  0  0  0  0  0  0  0  0  0  0
   54.1010   89.0800   52.0360 C   0  0  0  0  0  0  0  0  0  0  0  0
   47.5100   88.0110   53.4110 O   0  0  0  0  0  0  0  0  0  0  0  0
   49.0200   87.8780   50.9260 O   0  0  0  0  0  0  0  0  0  0  0  0
   51.5010   89.8190   48.9520 O   0  0  0  0  0  0  0  0  0  0  0  0
   49.7220   90.2320   51.3500 C   0  0  0  0  0  0  0  0  0  0  0  0
   50.8670   88.9910   49.8740 C   0  0  0  0  0  0  0  0  0  0  0  0
   47.7330   87.3010   51.0150 C   0  0  0  0  0  0  0  0  0  0  0  0
   47.2030   89.6350   51.7120 C   0  0  0  0  0  0  0  0  0  0  0  0
   43.8380   89.0180   50.5550 O   0  0  0  0  0  0  0  0  0  0  0  0
   45.2760   89.9640   48.7400 O   0  0  0  0  0  0  0  0  0  0  0  0
  1 19  1  0
  2 10  1  0
  4 11  2  0
  5 14  1  0
  7 16  1  0
  7 20  1  0
  8  1  1  0
  8  2  1  0
 11  5  1  0
 11  1  1  0
 12 17  2  0
 13 21  1  0
 13 23  1  0
 14 12  1  0
 15 27  1  0
 15  6  1  0
 15 18  1  0
 16  9  1  0
 19 12  1  0
 21 25  1  0
 23  2  1  0
 23  3  1  0
 24 22  1  0
 24 13  1  0
 24  8  1  0
 25  7  1  0
 26 18  1  0
 26  7  1  0
 26  3  1  0
 28 15  2  0
M  END
$$$$

     RDKit          3D

 14 15  0  0  0  0  0  0  0  0999 V2000
   45.4180   89.3900   51.2720 C   0  0  0  0  0  0  0  0  0  0  0  0
   49.6300   89.1390   50.8050 C   0  0  0  0  0  0  0  0  0  0  0  0
   50.1110   89.7020   52.0210 C   0  0  0  0  0  0  0  0  0  0  0  0
   52.5040   90.4090   52.4190 C   0  0  0  0  0  0  0  0  0  0  0  0
   44.7000   90.0010   51.4490 O   0  0  0  0  0  0  0  0  0  0  0  0
   48.2120   89.7220   53.3140 C   0  0  0  0  0  0  0  0  0  0  0  0
   46.8850   88.8570   51.3030 C   0  0  0  0  0  0  0  0  0  0  0  0
   49.4980   89.1420   53.2350 N   0  0  0  0  0  0  0  0  0  0  0  0
   51.8900   89.5200   53.3760 O   0  0  0  0  0  0  0  0  0  0  0  0
   48.3690   88.2170   51.0000 O   0  0  0  0  0  0  0  0  0  0  0  0
   46.8580   89.1710   52.9380 C   0  0  0  0  0  0  0  0  0  0  0  0
   46.0940   90.1090   53.1550 O   0  0  0  0  0  0  0  0  0  0  0  0
   50.7770   88.3110   50.3590 C   0  0  0  0  0  0  0  0  0  0  0  0
   51.1370   90.4280   52.4010 C   0  0  0  0  0  0  0  0  0  0  0  0
  1  7  2  0
  1  5  2  0
  2 13  1  0
  2 10  1  0
  2  3  1  0
  3 14  1  0
  3  8  1  0
  4  9  1  0
  7 11  1  0
  8  6  1  0
 10  7  1  0
 11 12  1  0
 11  6  1  0
 14  4  1  0
 14  9  1  0
M  END
$$$$

     RDKit          3D

  9  8  0  0  0  0  0  0  0  0999 V2000
   50.7030   89.7680   53.1600 O   0  0  0  0  0  0  0  0  0  0  0  0
   49.5510   90.1380   52.4920 C   0  0  0  0  0  0  0  0  0  0  0  0
   47.8590   89.7200   52.6580 C   0  0  0  0  0  0  0  0  0  0  0  0
   51.1150   90.2110   49.7200 O   0  0  0  0  0  0  0  0  0  0  0  0
   47.3750   89.9260   53.7830 C   0  0  0  0  0  0  0  0  0  0  0  0
   51.8620   88.0900   49.4620 O   0  0  0  0  0  0  0  0  0  0  0  0
   49.7140   89.2200   51.0170 C   0  0  0  0  0  0  0  0  0  0  0  0
   51.9750   88.5600   50.6910 C   0  0  0  0  0  0  0  0  0  0  0  0
   51.0310   89.2670   50.9200 C   0  0  0  0  0  0  0  0  0  0  0  0
  2  3  1  0
  2  1  1  0
  3  5  2  0
  6  8  1  0
  7  2  1  0
  8  9  1  0
  9  4  1  0
  9  7  1  0
M  END
$$$$
