
     RDKit          3D

 14 15  0  0  0  0  0  0  0  0999 V2000
   45.9130   89.3090   51.0950 O   0  0  0  0  0  0  0  0  0  0  0  0
   47.5710   91.6460   50.6860 N   0  0  0  0  0  0  0  0  0  0  0  0
   52.3210   91.7620   48.8080 C   0  0  0  0  0  0  0  0  0  0  0  0
   47.3170   90.8870   51.8310 C   0  0  0  0  0  0  0  0  0  0  0  0
   52.9440   92.3780   48.2980 O   0  0  0  0  0  0  0  0  0  0  0  0
   53.7000   90.7260   49.9750 O   0  0  0  0  0  0  0  0  0  0  0  0
   51.1240   92.0800   48.0460 C   0  0  0  0  0  0  0  0  0  0  0  0
   49.9840   92.1580   49.7210 C   0  0  0  0  0  0  0  0  0  0  0  0
   49.5470   91.8480   48.5650 C   0  0  0  0  0  0  0  0  0  0  0  0
   45.0840   90.7870   52.4180 O   0  0  0  0  0  0  0  0  0  0  0  0
   50.9690   90.9190   50.4730 C   0  0  0  0  0  0  0  0  0  0  0  0
   52.3480   91.3820   50.2550 C   0  0  0  0  0  0  0  0  0  0  0  0
   46.0120   90.1860   51.6320 C   0  0  0  0  0  0  0  0  0  0  0  0
   48.9390   91.4750   50.8910 C   0  0  0  0  0  0  0  0  0  0  0  0
  1 13  2  0
  2  4  1  0
  3 12  1  0
  4 13  1  0
  5  3  2  0
  7  9  1  0
  7  3  1  0
  8  9  1  0
  8 11  1  0
  8 14  1  0
 12  6  1  0
 12 11  1  0
 13 10  1  0
 14  2  1  0
 14  4  1  0
M  END
$$$$

     RDKit          3D

 37 39  0  0  0  0  0  0  0  0999 V2000
   50.6590   96.4070   45.9360 C   0  0  0  0  0  0  0  0  0  0  0  0
   48.4150   89.3930   50.1570 C   0  0  0  0  0  0  0  0  0  0  0  0
   46.8870   88.5920   48.3400 C   0  0  0  0  0  0  0  0  0  0  0  0
   49.6650   97.1650   45.7880 O   0  0  0  0  0  0  0  0  0  0  0  0
   47.6840   92.5930   48.4110 O   0  0  0  0  0  0  0  0  0  0  0  0
   51.7820   96.4800   45.5890 O   0  0  0  0  0  0  0  0  0  0  0  0
   53.6560   93.2730   50.2920 C   0  0  0  0  0  0  0  0  0  0  0  0
   43.7700   89.4800   48.3140 C   0  0  0  0  0  0  0  0  0  0  0  0
   44.6970   88.7640   49.3560 C   0  0  0  0  0  0  0  0  0  0  0  0
   52.0310   88.5190   49.3210 O   0  0  0  0  0  0  0  0  0  0  0  0
   51.4810   94.9920   48.7500 C   0  0  0  0  0  0  0  0  0  0  0  0
   44.6380   87.0280   49.3570 C   0  0  0  0  0  0  0  0  0  0  0  0
   50.9630   89.2260   49.9350 N   0  0  0  0  0  0  0  0  0  0  0  0
   49.6360   88.4740   50.0140 C   0  0  0  0  0  0  0  0  0  0  0  0
   50.9870   90.7260   49.4480 C   0  0  0  0  0  0  0  0  0  0  0  0
   49.8600   91.5510   49.8650 C   0  0  0  0  0  0  0  0  0  0  0  0
   49.4660   94.6700   51.7320 C   0  0  0  0  0  0  0  0  0  0  0  0
   52.3630   92.7210   50.1090 C   0  0  0  0  0  0  0  0  0  0  0  0
   46.0230   89.2800   49.5240 C   0  0  0  0  0  0  0  0  0  0  0  0
   47.4950   91.3370   51.0530 O   0  0  0  0  0  0  0  0  0  0  0  0
   52.8620   87.9250   50.3650 C   0  0  0  0  0  0  0  0  0  0  0  0
   50.2100   94.9390   46.5580 C   0  0  0  0  0  0  0  0  0  0  0  0
   46.5350   88.7060   51.5700 C   0  0  0  0  0  0  0  0  0  0  0  0
   49.8870   93.0050   49.2500 C   0  0  0  0  0  0  0  0  0  0  0  0
   48.6580   90.7540   50.4900 C   0  0  0  0  0  0  0  0  0  0  0  0
   54.6020   86.2660   50.7280 O   0  0  0  0  0  0  0  0  0  0  0  0
   53.7960   86.8330   49.8670 C   0  0  0  0  0  0  0  0  0  0  0  0
   52.2960   91.2590   50.1060 C   0  0  0  0  0  0  0  0  0  0  0  0
   51.3380   96.0090   49.1100 O   0  0  0  0  0  0  0  0  0  0  0  0
   46.9510   89.0220   50.6450 C   0  0  0  0  0  0  0  0  0  0  0  0
   51.1930   93.7910   49.6170 C   0  0  0  0  0  0  0  0  0  0  0  0
   48.7300   93.3560   48.4360 C   0  0  0  0  0  0  0  0  0  0  0  0
   53.5510   86.0660   48.9120 O   0  0  0  0  0  0  0  0  0  0  0  0
   45.9770   90.6500   49.0130 C   0  0  0  0  0  0  0  0  0  0  0  0
   51.5160   94.5080   47.1740 C   0  0  0  0  0  0  0  0  0  0  0  0
   50.7450   94.2120   51.1400 O   0  0  0  0  0  0  0  0  0  0  0  0
   49.0120   94.4950   47.3470 C   0  0  0  0  0  0  0  0  0  0  0  0
  1 22  1  0
  2 25  1  0
  2 30  1  0
  3 19  1  0
  4  1  1  0
  5 32  1  0
  6  1  2  0
  8  9  1  0
  9 12  1  0
  9 19  1  0
 10 13  1  0
 10 21  1  0
 11 29  2  0
 11 31  1  0
 13 14  1  0
 14  2  1  0
 15 16  1  0
 15 13  1  0
 15 28  1  0
 16 25  1  0
 18  7  1  0
 19 30  1  0
 22 35  1  0
 22 37  1  0
 24 31  1  0
 24 16  1  0
 25 20  1  0
 27 21  1  0
 27 26  1  0
 28 18  1  0
 30 23  2  0
 31 18  1  0
 31 36  1  0
 32 24  1  0
 33 27  2  0
 34 19  1  0
 35 11  1  0
 36 17  1  0
 37 32  1  0
M  END
$$$$

     RDKit          3D

 22 22  0  0  0  0  0  0  0  0999 V2000
   49.7180   91.3040   48.2620 O   0  0  0  0  0  0  0  0  0  0  0  0
   56.3900   87.9140   52.4650 N   0  0  0  0  0  0  0  0  0  0  0  0
   57.0470   88.8220   51.0910 N   0  0  0  0  0  0  0  0  0  0  0  0
   44.5590   91.4330   50.5400 C   0  0  0  0  0  0  0  0  0  0  0  0
   54.5470   89.4420   50.3850 C   0  0  0  0  0  0  0  0  0  0  0  0
   45.6160   90.9510   49.5750 C   0  0  0  0  0  0  0  0  0  0  0  0
   51.5210   91.9820   49.7200 O   0  0  0  0  0  0  0  0  0  0  0  0
   49.0280   91.0190   49.4520 N   0  0  0  0  0  0  0  0  0  0  0  0
   47.8180   91.8580   49.9100 C   0  0  0  0  0  0  0  0  0  0  0  0
   45.4210   89.4410   49.2030 C   0  0  0  0  0  0  0  0  0  0  0  0
   43.9480   90.7130   51.3830 O   0  0  0  0  0  0  0  0  0  0  0  0
   51.1780   91.0880   48.4960 C   0  0  0  0  0  0  0  0  0  0  0  0
   53.6710   88.6210   49.4320 C   0  0  0  0  0  0  0  0  0  0  0  0
   52.2140   89.9290   48.4330 C   0  0  0  0  0  0  0  0  0  0  0  0
   55.8190   88.5110   50.4290 C   0  0  0  0  0  0  0  0  0  0  0  0
   57.3440   88.5790   51.6880 N   0  0  0  0  0  0  0  0  0  0  0  0
   46.8390   91.0160   50.4150 O   0  0  0  0  0  0  0  0  0  0  0  0
   46.6510   88.8340   49.4100 O   0  0  0  0  0  0  0  0  0  0  0  0
   44.4090   92.6860   50.6420 O   0  0  0  0  0  0  0  0  0  0  0  0
   55.6860   87.6520   51.4870 O   0  0  0  0  0  0  0  0  0  0  0  0
   52.2590   89.0150   49.6000 N   0  0  0  0  0  0  0  0  0  0  0  0
   51.4310   87.9990   49.2170 O   0  0  0  0  0  0  0  0  0  0  0  0
  1 12  1  0
  1  8  1  0
  3 16  1  0
  4 19  2  0
  4 11  1  0
  6 10  1  0
  6 17  1  0
  6  4  1  0
  8  9  1  0
  9 17  1  0
 10 18  1  0
 12  7  2  0
 13 21  1  0
 13  5  1  0
 14 12  1  0
 14 21  1  0
 15  5  1  0
 15  3  1  0
 15 20  1  0
 16  2  1  0
 20  2  1  0
 22 21  1  0
M  END
$$$$

     RDKit          3D

 37 39  0  0  0  0  0  0  0  0999 V2000
   45.4530   86.3630   47.0540 O   0  0  0  0  0  0  0  0  0  0  0  0
   51.2070   91.1210   49.5450 C   0  0  0  0  0  0  0  0  0  0  0  0
   47.7630   96.3830   48.4330 C   0  0  0  0  0  0  0  0  0  0  0  0
   51.6200   93.7380   49.2440 N   0  0  0  0  0  0  0  0  0  0  0  0
   53.8380   90.7860   48.6480 N   0  0  0  0  0  0  0  0  0  0  0  0
   45.3500   90.9520   50.2420 C   0  0  0  0  0  0  0  0  0  0  0  0
   44.2310   94.1550   47.9580 O   0  0  0  0  0  0  0  0  0  0  0  0
   48.6190   92.0530   49.6200 C   0  0  0  0  0  0  0  0  0  0  0  0
   45.9610   88.1770   49.0600 C   0  0  0  0  0  0  0  0  0  0  0  0
   46.1400   90.4730   48.9720 C   0  0  0  0  0  0  0  0  0  0  0  0
   49.7090   94.9690   47.9650 C   0  0  0  0  0  0  0  0  0  0  0  0
   46.4760   95.7760   49.2430 C   0  0  0  0  0  0  0  0  0  0  0  0
   48.6440   94.2860   47.1500 O   0  0  0  0  0  0  0  0  0  0  0  0
   50.5120   96.0550   47.1350 C   0  0  0  0  0  0  0  0  0  0  0  0
   45.4410   93.6210   49.8670 C   0  0  0  0  0  0  0  0  0  0  0  0
   47.5840   92.4440   50.6270 C   0  0  0  0  0  0  0  0  0  0  0  0
   51.7080   90.0080   48.7460 O   0  0  0  0  0  0  0  0  0  0  0  0
   44.5310   93.1420   48.7910 O   0  0  0  0  0  0  0  0  0  0  0  0
   46.0310   92.2820   50.4120 C   0  0  0  0  0  0  0  0  0  0  0  0
   49.3730   90.0170   50.6600 O   0  0  0  0  0  0  0  0  0  0  0  0
   53.0120   89.7600   48.4540 C   0  0  0  0  0  0  0  0  0  0  0  0
   54.1800   88.0010   46.9600 O   0  0  0  0  0  0  0  0  0  0  0  0
   53.8920   87.4440   48.1840 O   0  0  0  0  0  0  0  0  0  0  0  0
   44.1060   90.4460   50.2320 C   0  0  0  0  0  0  0  0  0  0  0  0
   49.8080   91.1450   50.1800 C   0  0  0  0  0  0  0  0  0  0  0  0
   46.7880   89.4160   49.4550 N   0  0  0  0  0  0  0  0  0  0  0  0
   53.4140   91.9860   48.9990 C   0  0  0  0  0  0  0  0  0  0  0  0
   53.4380   88.5030   47.6980 C   0  0  0  0  0  0  0  0  0  0  0  0
   45.3810   87.6410   50.3660 C   0  0  0  0  0  0  0  0  0  0  0  0
   50.6860   92.9300   47.2420 O   0  0  0  0  0  0  0  0  0  0  0  0
   52.1440   92.2890   49.2480 C   0  0  0  0  0  0  0  0  0  0  0  0
   47.1940   87.5130   46.1610 C   0  0  0  0  0  0  0  0  0  0  0  0
   50.7100   93.8160   48.1820 C   0  0  0  0  0  0  0  0  0  0  0  0
   45.8390   88.2070   47.9390 O   0  0  0  0  0  0  0  0  0  0  0  0
   46.1700   87.3080   47.1230 N   0  0  0  0  0  0  0  0  0  0  0  0
   46.4410   94.3310   49.1330 O   0  0  0  0  0  0  0  0  0  0  0  0
   48.9840   95.7790   49.0980 C   0  0  0  0  0  0  0  0  0  0  0  0
  1 35  1  0
  2 17  1  0
  2 25  1  0
  3 37  1  0
  3 12  1  0
  4 31  1  0
  5 27  1  0
  7 18  1  0
  8 25  1  0
  8 16  1  0
  9 26  1  0
  9 29  1  0
 10 26  1  0
 10  6  1  0
 11 14  1  0
 11 33  1  0
 11 37  1  0
 13 11  1  0
 15 18  1  0
 15 19  1  0
 19  6  1  0
 19 16  1  0
 21  5  2  0
 21 17  1  0
 22 28  1  0
 22 23  1  0
 24  6  2  0
 25 20  1  0
 28 23  1  0
 28 21  1  0
 30 33  2  0
 31 27  1  0
 31  2  1  0
 32 35  1  0
 33  4  1  0
 34  9  1  0
 35 34  1  0
 36 12  1  0
 36 15  1  0
M  END
$$$$

     RDKit          3D

  6  5  0  0  0  0  0  0  0  0999 V2000
   51.8940   90.0630   48.1090 N   0  0  0  0  0  0  0  0  0  0  0  0
   51.1750   91.0930   48.5750 C   0  0  0  0  0  0  0  0  0  0  0  0
   49.3380   92.1240   48.5440 N   0  0  0  0  0  0  0  0  0  0  0  0
   49.6530   89.9900   48.9750 N   0  0  0  0  0  0  0  0  0  0  0  0
   50.9020   90.3750   48.6370 C   0  0  0  0  0  0  0  0  0  0  0  0
   48.9110   91.0130   49.0660 C   0  0  0  0  0  0  0  0  0  0  0  0
  1  5  2  0
  2  5  1  0
  3  6  2  0
  4  6  1  0
  5  4  1  0
M  END
$$$$

     RDKit          3D

 49 52  0  0  0  0  0  0  0  0999 V2000
   51.1830   91.6170   48.8900 O   0  0  0  0  0  0  0  0  0  0  0  0
   55.7180   85.0880   45.0730 O   0  0  0  0  0  0  0  0  0  0  0  0
   42.6030   91.6410   51.2780 O   0  0  0  0  0  0  0  0  0  0  0  0
   52.2690   91.5980   46.4910 O   0  0  0  0  0  0  0  0  0  0  0  0
   40.0020   93.3050   51.6040 C   0  0  0  0  0  0  0  0  0  0  0  0
   38.3700   93.4060   49.7160 C   0  0  0  0  0  0  0  0  0  0  0  0
   43.1470   94.1840   48.6810 C   0  0  0  0  0  0  0  0  0  0  0  0
   45.8430   88.1920   51.2060 C   0  0  0  0  0  0  0  0  0  0  0  0
   54.2480   89.1510   47.2150 C   0  0  0  0  0  0  0  0  0  0  0  0
   41.6160   94.5720   49.2430 C   0  0  0  0  0  0  0  0  0  0  0  0
   59.9700   85.7830   44.3140 C   0  0  0  0  0  0  0  0  0  0  0  0
   43.9480   95.4490   48.4280 C   0  0  0  0  0  0  0  0  0  0  0  0
   57.7080   86.3790   44.7170 N   0  0  0  0  0  0  0  0  0  0  0  0
   50.0780   91.9150   48.1190 C   0  0  0  0  0  0  0  0  0  0  0  0
   42.4300   92.6270   50.1830 C   0  0  0  0  0  0  0  0  0  0  0  0
   47.7280   94.6500   48.9200 C   0  0  0  0  0  0  0  0  0  0  0  0
   41.3350   95.6730   49.2680 O   0  0  0  0  0  0  0  0  0  0  0  0
   57.8560   87.1210   43.4180 C   0  0  0  0  0  0  0  0  0  0  0  0
   55.9590   88.0460   46.3970 C   0  0  0  0  0  0  0  0  0  0  0  0
   45.1560   95.0070   49.1260 C   0  0  0  0  0  0  0  0  0  0  0  0
   39.0980   94.3190   50.8870 C   0  0  0  0  0  0  0  0  0  0  0  0
   52.7890   90.9310   47.3110 C   0  0  0  0  0  0  0  0  0  0  0  0
   59.3020   87.1940   46.1200 O   0  0  0  0  0  0  0  0  0  0  0  0
   43.4210   93.7290   50.6690 C   0  0  0  0  0  0  0  0  0  0  0  0
   38.2930   94.9700   51.8410 O   0  0  0  0  0  0  0  0  0  0  0  0
   60.6580   83.6860   45.7960 S   0  0  0  0  0  0  0  0  0  0  0  0
   60.0750   84.2830   44.1510 C   0  0  0  0  0  0  0  0  0  0  0  0
   53.8280   90.0510   47.4240 N   0  0  0  0  0  0  0  0  0  0  0  0
   46.6500   91.5160   49.6590 C   0  0  0  0  0  0  0  0  0  0  0  0
   54.4610   87.9180   46.6570 C   0  0  0  0  0  0  0  0  0  0  0  0
   48.2480   93.4140   48.9460 C   0  0  0  0  0  0  0  0  0  0  0  0
   46.5610   90.2280   50.3880 C   0  0  0  0  0  0  0  0  0  0  0  0
   49.1960   90.1860   50.0420 C   0  0  0  0  0  0  0  0  0  0  0  0
   38.9080   92.6230   52.4300 C   0  0  0  0  0  0  0  0  0  0  0  0
   56.4810   86.5930   46.7190 C   0  0  0  0  0  0  0  0  0  0  0  0
   49.5660   93.3600   48.1160 C   0  0  0  0  0  0  0  0  0  0  0  0
   49.0750   91.1810   48.9460 C   0  0  0  0  0  0  0  0  0  0  0  0
   47.9330   92.2020   49.4260 C   0  0  0  0  0  0  0  0  0  0  0  0
   53.5470   91.9540   49.5460 C   0  0  0  0  0  0  0  0  0  0  0  0
   46.4620   95.0280   49.0100 N   0  0  0  0  0  0  0  0  0  0  0  0
   56.5030   86.0290   45.2860 C   0  0  0  0  0  0  0  0  0  0  0  0
   58.9000   86.0870   45.3300 C   0  0  0  0  0  0  0  0  0  0  0  0
   45.5950   89.6250   51.2060 O   0  0  0  0  0  0  0  0  0  0  0  0
   48.5450   95.6220   48.6070 O   0  0  0  0  0  0  0  0  0  0  0  0
   43.6660   92.9910   48.8710 C   0  0  0  0  0  0  0  0  0  0  0  0
   53.0450   87.6610   46.6210 N   0  0  0  0  0  0  0  0  0  0  0  0
   52.4860   91.0990   48.8320 C   0  0  0  0  0  0  0  0  0  0  0  0
   47.8720   89.8960   50.7910 C   0  0  0  0  0  0  0  0  0  0  0  0
   41.1250   93.4190   50.2260 C   0  0  0  0  0  0  0  0  0  0  0  0
  2 41  2  0
  4 22  2  0
  5 34  1  0
  7 12  1  0
  7 45  1  0
  7 10  1  0
  9 28  1  0
 10 17  2  0
 10 49  1  0
 11 42  1  0
 12 20  1  0
 13 41  1  0
 13 42  1  0
 14  1  1  0
 14 37  1  0
 15 49  1  0
 15 24  1  0
 15  3  1  0
 16 31  1  0
 16 40  1  0
 18 13  1  0
 19 30  1  0
 19 35  1  0
 21  6  1  0
 21  5  1  0
 21 25  1  0
 22 28  1  0
 22 47  1  0
 27 11  1  0
 27 26  1  0
 29 32  1  0
 30 46  1  0
 30  9  1  0
 31 38  1  0
 32 48  1  0
 32 43  1  0
 33 48  1  0
 36 14  1  0
 36 31  2  0
 37 38  1  0
 37 33  1  0
 38 29  1  0
 40 20  1  0
 41 35  1  0
 42 23  1  0
 43  8  1  0
 44 16  2  0
 45 15  1  0
 45 24  1  0
 47  1  1  0
 47 39  1  0
 49  5  1  0
M  END
$$$$

     RDKit          3D

 23 24  0  0  0  0  0  0  0  0999 V2000
   51.1250   89.6610   52.0190 O   0  0  0  0  0  0  0  0  0  0  0  0
   50.7990   91.7440   49.2200 N   0  0  0  0  0  0  0  0  0  0  0  0
   44.8070   87.4470   51.8050 C   0  0  0  0  0  0  0  0  0  0  0  0
   46.8950   87.6350   50.9700 C   0  0  0  0  0  0  0  0  0  0  0  0
   45.1310   88.8550   51.6380 O   0  0  0  0  0  0  0  0  0  0  0  0
   53.2310   90.9520   50.0110 C   0  0  0  0  0  0  0  0  0  0  0  0
   50.5190   93.2100   49.0040 C   0  0  0  0  0  0  0  0  0  0  0  0
   48.5750   90.8860   49.2930 C   0  0  0  0  0  0  0  0  0  0  0  0
   51.0610   89.1220   50.6610 C   0  0  0  0  0  0  0  0  0  0  0  0
   52.4250   87.9780   49.8070 O   0  0  0  0  0  0  0  0  0  0  0  0
   47.1140   91.0310   52.4990 C   0  0  0  0  0  0  0  0  0  0  0  0
   50.5940   94.0940   47.9880 C   0  0  0  0  0  0  0  0  0  0  0  0
   48.5610   90.1600   50.4230 N   0  0  0  0  0  0  0  0  0  0  0  0
   47.6660   91.7830   48.9700 O   0  0  0  0  0  0  0  0  0  0  0  0
   54.2770   88.9290   50.8770 N   0  0  0  0  0  0  0  0  0  0  0  0
   52.1470   88.9780   49.9700 C   0  0  0  0  0  0  0  0  0  0  0  0
   47.2870   90.2210   51.1640 C   0  0  0  0  0  0  0  0  0  0  0  0
   53.4570   90.0090   50.5110 C   0  0  0  0  0  0  0  0  0  0  0  0
   51.8780   91.4870   49.8360 C   0  0  0  0  0  0  0  0  0  0  0  0
   49.4830   89.0200   50.5240 C   0  0  0  0  0  0  0  0  0  0  0  0
   49.8110   90.9770   48.4880 C   0  0  0  0  0  0  0  0  0  0  0  0
   45.7670   86.7690   51.0310 C   0  0  0  0  0  0  0  0  0  0  0  0
   46.4220   88.9550   51.0690 C   0  0  0  0  0  0  0  0  0  0  0  0
  2 19  1  0
  4 22  1  0
  4 23  1  0
  5  3  1  0
  6 18  1  0
  7  2  1  0
  8 13  1  0
  9  1  1  0
 12  7  2  0
 13 20  1  0
 13 17  1  0
 14  8  2  0
 16 10  1  0
 16 18  1  0
 16  9  1  0
 17 11  1  0
 18 15  1  0
 19  6  1  0
 20  9  1  0
 21  2  1  0
 21  8  1  0
 22  3  1  0
 23 17  1  0
 23  5  1  0
M  END
$$$$

     RDKit          3D

 20 21  0  0  0  0  0  0  0  0999 V2000
   49.7740   90.1980   51.2260 C   0  0  0  0  0  0  0  0  0  0  0  0
   51.0380   89.6400   50.8680 O   0  0  0  0  0  0  0  0  0  0  0  0
   53.4070   86.7410   51.0230 C   0  0  0  0  0  0  0  0  0  0  0  0
   49.6560   95.3700   46.6670 O   0  0  0  0  0  0  0  0  0  0  0  0
   48.6970   89.6400   50.4720 C   0  0  0  0  0  0  0  0  0  0  0  0
   48.4930   90.2830   49.0510 N   0  0  0  0  0  0  0  0  0  0  0  0
   52.3570   87.1690   50.1000 C   0  0  0  0  0  0  0  0  0  0  0  0
   49.5860   92.0110   47.7170 O   0  0  0  0  0  0  0  0  0  0  0  0
   50.7420   93.2810   49.2720 O   0  0  0  0  0  0  0  0  0  0  0  0
   49.5830   93.3880   48.1430 C   0  0  0  0  0  0  0  0  0  0  0  0
   52.7500   88.5740   49.6580 N   0  0  0  0  0  0  0  0  0  0  0  0
   50.4070   92.0230   49.6980 O   0  0  0  0  0  0  0  0  0  0  0  0
   51.5060   94.6120   47.5770 O   0  0  0  0  0  0  0  0  0  0  0  0
   50.2650   94.5520   47.4070 C   0  0  0  0  0  0  0  0  0  0  0  0
   52.2430   89.8530   50.1720 C   0  0  0  0  0  0  0  0  0  0  0  0
   53.6440   88.9200   51.9140 C   0  0  0  0  0  0  0  0  0  0  0  0
   48.0420   93.6070   48.0610 N   0  0  0  0  0  0  0  0  0  0  0  0
   53.8840   88.4460   52.8270 C   0  0  0  0  0  0  0  0  0  0  0  0
   53.4730   89.1820   50.2880 C   0  0  0  0  0  0  0  0  0  0  0  0
   49.2130   91.4910   48.8970 C   0  0  0  0  0  0  0  0  0  0  0  0
  2  1  1  0
  4 14  2  0
  5  1  1  0
  6  5  1  0
  7  3  1  0
  8 10  1  0
  8 20  1  0
  9 12  1  0
 10 17  1  0
 10  9  1  0
 11  7  1  0
 11 15  1  0
 11 19  1  0
 14 13  1  0
 14 10  1  0
 15 19  1  0
 15  2  1  0
 16 18  3  0
 19 16  1  0
 20  6  1  0
 20 12  1  0
M  END
$$$$

     RDKit          3D

 19 19  0  0  0  0  0  0  0  0999 V2000
   51.0370   90.0660   51.5440 O   0  0  0  0  0  0  0  0  0  0  0  0
   48.0770   89.1820   50.6920 C   0  0  0  0  0  0  0  0  0  0  0  0
   46.5760   87.3550   50.8110 O   0  0  0  0  0  0  0  0  0  0  0  0
   46.8340   88.5680   51.1950 C   0  0  0  0  0  0  0  0  0  0  0  0
   51.9890   94.3660   47.9180 N   0  0  0  0  0  0  0  0  0  0  0  0
   52.6450   91.3790   52.8970 C   0  0  0  0  0  0  0  0  0  0  0  0
   48.9010   91.3760   48.8820 O   0  0  0  0  0  0  0  0  0  0  0  0
   51.1520   93.2550   47.5770 C   0  0  0  0  0  0  0  0  0  0  0  0
   51.0750   94.6360   50.1440 C   0  0  0  0  0  0  0  0  0  0  0  0
   50.1700   91.9420   49.8670 S   0  0  0  0  0  0  0  0  0  0  0  0
   45.9710   89.1240   51.7020 O   0  0  0  0  0  0  0  0  0  0  0  0
   52.5790   94.2210   49.1450 C   0  0  0  0  0  0  0  0  0  0  0  0
   50.5980   93.1250   46.5070 O   0  0  0  0  0  0  0  0  0  0  0  0
   51.7670   90.1730   52.8760 C   0  0  0  0  0  0  0  0  0  0  0  0
   49.7600   90.8740   51.2600 C   0  0  0  0  0  0  0  0  0  0  0  0
   49.9960   93.6160   50.3460 C   0  0  0  0  0  0  0  0  0  0  0  0
   48.5570   90.2920   51.1760 C   0  0  0  0  0  0  0  0  0  0  0  0
   49.1310   88.3020   50.3600 N   0  0  0  0  0  0  0  0  0  0  0  0
   50.9870   92.0230   48.5950 C   0  0  0  0  0  0  0  0  0  0  0  0
  1 14  1  0
  2 18  1  0
  2 17  1  0
  2  4  1  0
  3  4  2  0
  4 11  1  0
  5 12  1  0
  8  5  1  0
  8 19  1  0
  9 16  2  0
 10  7  1  0
 10 16  1  0
 10 15  1  0
 12  9  1  0
 13  8  2  0
 14  6  1  0
 15 17  1  0
 15  1  1  0
 19 10  1  0
M  END
$$$$

     RDKit          3D

  8  8  0  0  0  0  0  0  0  0999 V2000
   49.7280   92.3270   49.8540 C   0  0  0  0  0  0  0  0  0  0  0  0
   48.9880   91.6910   50.7650 N   0  0  0  0  0  0  0  0  0  0  0  0
   50.1780   93.0870   47.6770 C   0  0  0  0  0  0  0  0  0  0  0  0
   50.9810   91.7290   49.4110 N   0  0  0  0  0  0  0  0  0  0  0  0
   49.6990   93.1270   48.8210 C   0  0  0  0  0  0  0  0  0  0  0  0
   49.0420   94.7890   49.0520 C   0  0  0  0  0  0  0  0  0  0  0  0
   51.3440   92.5680   48.1330 C   0  0  0  0  0  0  0  0  0  0  0  0
   49.7310   93.6400   46.6030 O   0  0  0  0  0  0  0  0  0  0  0  0
  1  2  1  0
  3  8  1  0
  3  7  1  0
  3  5  1  0
  4  1  1  0
  5  6  1  0
  5  1  1  0
  7  4  1  0
M  END
$$$$

     RDKit          3D

  5  4  0  0  0  0  0  0  0  0999 V2000
   50.3760   92.2500   49.4280 N   0  0  0  0  0  0  0  0  0  0  0  0
   49.7300   94.0930   48.0020 C   0  0  0  0  0  0  0  0  0  0  0  0
   50.0800   92.6280   47.9460 C   0  0  0  0  0  0  0  0  0  0  0  0
   51.1490   92.2920   46.9750 C   0  0  0  0  0  0  0  0  0  0  0  0
   50.3240   90.6270   49.3150 N   0  0  0  0  0  0  0  0  0  0  0  0
  3  2  1  0
  3  1  1  0
  4  3  1  0
  5  1  1  0
M  END
$$$$

     RDKit          3D

  8  7  0  0  0  0  0  0  0  0999 V2000
   50.9580   91.2560   49.6600 N   0  0  0  0  0  0  0  0  0  0  0  0
   48.1090   90.6430   49.9350 O   0  0  0  0  0  0  0  0  0  0  0  0
   52.3110   90.7230   50.0870 C   0  0  0  0  0  0  0  0  0  0  0  0
   51.9470   90.0820   51.2940 C   0  0  0  0  0  0  0  0  0  0  0  0
   53.0000   91.9710   50.2800 N   0  0  0  0  0  0  0  0  0  0  0  0
   50.2700   90.5160   49.1470 C   0  0  0  0  0  0  0  0  0  0  0  0
   48.7790   90.6300   48.9340 C   0  0  0  0  0  0  0  0  0  0  0  0
   48.7030   91.2300   47.8930 O   0  0  0  0  0  0  0  0  0  0  0  0
  1  3  1  0
  3  5  1  0
  3  4  1  0
  6  1  2  3
  7  6  1  0
  7  2  1  0
  8  7  2  0
M  END
$$$$

     RDKit          3D

 20 20  0  0  0  0  0  0  0  0999 V2000
   51.9040   88.1810   49.0390 N   0  0  0  0  0  0  0  0  0  0  0  0
   50.2890   94.2140   47.3970 C   0  0  0  0  0  0  0  0  0  0  0  0
   51.1460   89.7590   49.2920 C   0  0  0  0  0  0  0  0  0  0  0  0
   54.5070   86.7800   49.5880 O   0  0  0  0  0  0  0  0  0  0  0  0
   51.3060   94.5800   48.2880 O   0  0  0  0  0  0  0  0  0  0  0  0
   53.1410   88.5630   49.4420 C   0  0  0  0  0  0  0  0  0  0  0  0
   49.3100   92.9420   50.3850 O   0  0  0  0  0  0  0  0  0  0  0  0
   50.7080   93.3750   46.3770 C   0  0  0  0  0  0  0  0  0  0  0  0
   50.7480   92.0510   46.9360 C   0  0  0  0  0  0  0  0  0  0  0  0
   51.1420   91.1450   49.1710 C   0  0  0  0  0  0  0  0  0  0  0  0
   51.7710   96.7550   47.4250 C   0  0  0  0  0  0  0  0  0  0  0  0
   54.5350   88.4450   50.8630 O   0  0  0  0  0  0  0  0  0  0  0  0
   53.8800   87.4840   50.3040 C   0  0  0  0  0  0  0  0  0  0  0  0
   49.1550   93.9930   48.2230 O   0  0  0  0  0  0  0  0  0  0  0  0
   50.4680   91.9530   48.3720 N   0  0  0  0  0  0  0  0  0  0  0  0
   51.1650   89.5330   51.0570 S   0  0  0  0  0  0  0  0  0  0  0  0
   49.1630   92.7380   49.0210 S   0  0  0  0  0  0  0  0  0  0  0  0
   47.9320   92.0980   48.7780 O   0  0  0  0  0  0  0  0  0  0  0  0
   55.6040   88.2280   51.8210 O   0  0  0  0  0  0  0  0  0  0  0  0
   51.3670   95.9920   48.6820 C   0  0  0  0  0  0  0  0  0  0  0  0
  1  3  1  0
  1  6  1  0
  2 14  1  0
  2  5  1  0
  3 16  2  0
  5 20  1  0
  6 13  1  0
  8  9  1  0
  8  2  1  0
  9 15  1  0
 10  3  1  0
 11 20  1  0
 12 19  1  0
 13  4  1  0
 13 12  1  0
 14 17  1  0
 15 17  1  0
 15 10  1  0
 17  7  1  0
 18 17  1  0
M  END
$$$$

     RDKit          3D

 20 20  0  0  0  0  0  0  0  0999 V2000
   51.6450   91.6870   48.7290 C   0  0  0  0  0  0  0  0  0  0  0  0
   50.2300   88.9750   49.8770 C   0  0  0  0  0  0  0  0  0  0  0  0
   50.9400   88.1850   50.8660 C   0  0  0  0  0  0  0  0  0  0  0  0
   50.9910   92.8730   46.0250 O   0  0  0  0  0  0  0  0  0  0  0  0
   50.0040   88.9450   48.2490 C   0  0  0  0  0  0  0  0  0  0  0  0
   48.7590   88.5180   50.1640 C   0  0  0  0  0  0  0  0  0  0  0  0
   50.9870   96.1890   48.9610 O   0  0  0  0  0  0  0  0  0  0  0  0
   50.8740   94.3260   47.8020 C   0  0  0  0  0  0  0  0  0  0  0  0
   49.3220   90.8140   51.3720 C   0  0  0  0  0  0  0  0  0  0  0  0
   50.3360   93.6690   46.5540 C   0  0  0  0  0  0  0  0  0  0  0  0
   52.1790   93.8630   48.0730 O   0  0  0  0  0  0  0  0  0  0  0  0
   51.1300   91.1100   49.1860 O   0  0  0  0  0  0  0  0  0  0  0  0
   50.4950   90.4210   52.0080 C   0  0  0  0  0  0  0  0  0  0  0  0
   51.0130   89.1510   52.2040 C   0  0  0  0  0  0  0  0  0  0  0  0
   50.8190   96.6890   46.9040 O   0  0  0  0  0  0  0  0  0  0  0  0
   52.0280   92.4700   48.1330 C   0  0  0  0  0  0  0  0  0  0  0  0
   51.4860   88.9150   48.7150 C   0  0  0  0  0  0  0  0  0  0  0  0
   48.7250   89.9690   52.8020 O   0  0  0  0  0  0  0  0  0  0  0  0
   51.1580   95.8620   47.8220 C   0  0  0  0  0  0  0  0  0  0  0  0
   49.9360   90.7990   49.8160 C   0  0  0  0  0  0  0  0  0  0  0  0
  1 12  1  0
  2  6  1  0
  2  3  1  0
  3 14  1  0
  4 10  2  0
  5 17  1  0
  5  2  1  0
  8 10  1  0
  8 19  1  0
  8 11  1  0
  9 13  1  0
  9 18  1  0
 11 16  1  0
 12 20  1  0
 13 14  1  0
 15 19  2  0
 16  1  1  0
 17  2  1  0
 19  7  1  0
 20  9  1  0
M  END
$$$$

     RDKit          3D

 22 22  0  0  0  0  0  0  0  0999 V2000
   46.4670   87.5590   46.0220 C   0  0  0  0  0  0  0  0  0  0  0  0
   47.1690   89.0380   49.4390 C   0  0  0  0  0  0  0  0  0  0  0  0
   51.1460   94.0980   46.5660 O   0  0  0  0  0  0  0  0  0  0  0  0
   45.1310   87.5880   48.2720 C   0  0  0  0  0  0  0  0  0  0  0  0
   46.0560   88.7600   50.2470 C   0  0  0  0  0  0  0  0  0  0  0  0
   47.5520   95.8660   49.8850 O   0  0  0  0  0  0  0  0  0  0  0  0
   49.8580   92.1330   48.9370 O   0  0  0  0  0  0  0  0  0  0  0  0
   49.5600   94.6230   48.3070 C   0  0  0  0  0  0  0  0  0  0  0  0
   49.9210   94.0490   46.8850 C   0  0  0  0  0  0  0  0  0  0  0  0
   47.8350   95.0670   48.3850 P   0  0  0  0  0  0  0  0  0  0  0  0
   48.6790   90.6750   50.4290 C   0  0  0  0  0  0  0  0  0  0  0  0
   49.9070   88.7050   49.8350 C   0  0  0  0  0  0  0  0  0  0  0  0
   46.2470   87.9760   47.5080 C   0  0  0  0  0  0  0  0  0  0  0  0
   47.0410   93.7590   48.3150 O   0  0  0  0  0  0  0  0  0  0  0  0
   47.4600   95.7910   47.1080 O   0  0  0  0  0  0  0  0  0  0  0  0
   51.7730   93.6380   49.1780 O   0  0  0  0  0  0  0  0  0  0  0  0
   50.0780   91.1880   50.1520 C   0  0  0  0  0  0  0  0  0  0  0  0
   45.0070   88.0800   49.5950 C   0  0  0  0  0  0  0  0  0  0  0  0
   47.9200   91.5070   50.8810 O   0  0  0  0  0  0  0  0  0  0  0  0
   47.3110   88.8040   48.0810 C   0  0  0  0  0  0  0  0  0  0  0  0
   50.3950   93.3340   48.9250 C   0  0  0  0  0  0  0  0  0  0  0  0
   48.3670   89.4790   50.1780 N   0  0  0  0  0  0  0  0  0  0  0  0
  1 13  1  0
  2 22  1  0
  2  5  1  0
  3  9  2  0
  4 18  1  0
  7 17  1  0
  8  9  1  0
  8 10  1  0
  8 21  1  0
 10  6  1  0
 11 19  2  0
 12 22  1  0
 13 20  1  0
 13  4  2  0
 14 10  1  0
 15 10  2  0
 17 11  1  0
 18  5  2  0
 20  2  2  0
 21  7  1  0
 21 16  2  0
 22 11  1  0
M  END
$$$$

     RDKit          3D

 11 12  0  0  0  0  0  0  0  0999 V2000
   50.5890   90.8860   51.5080 O   0  0  0  0  0  0  0  0  0  0  0  0
   51.9780   91.6150   49.0790 C   0  0  0  0  0  0  0  0  0  0  0  0
   51.1980   90.0030   50.4370 C   0  0  0  0  0  0  0  0  0  0  0  0
   49.4940   92.1630   48.9810 C   0  0  0  0  0  0  0  0  0  0  0  0
   48.9740   90.1840   49.9500 C   0  0  0  0  0  0  0  0  0  0  0  0
   52.6410   89.9770   49.5970 C   0  0  0  0  0  0  0  0  0  0  0  0
   50.0870   89.2890   49.7630 O   0  0  0  0  0  0  0  0  0  0  0  0
   50.9000   91.8000   48.5120 C   0  0  0  0  0  0  0  0  0  0  0  0
   50.7480   90.9020   47.4370 O   0  0  0  0  0  0  0  0  0  0  0  0
   48.5150   91.0800   48.7800 O   0  0  0  0  0  0  0  0  0  0  0  0
   49.3770   91.0600   51.0910 C   0  0  0  0  0  0  0  0  0  0  0  0
  2  6  1  0
  3  6  1  0
  3  1  1  0
  5 11  1  0
  7  5  1  0
  7  3  1  0
  8  9  1  0
  8  4  1  0
  8  2  1  0
 10  4  1  0
 10  5  1  0
 11  1  1  0
M  END
$$$$

     RDKit          3D

 24 26  0  0  0  0  0  0  0  0999 V2000
   50.9270   91.6780   48.4570 C   0  0  0  0  0  0  0  0  0  0  0  0
   53.5730   91.9560   47.6740 C   0  0  0  0  0  0  0  0  0  0  0  0
   49.7980   89.5750   49.2570 C   0  0  0  0  0  0  0  0  0  0  0  0
   56.1420   90.9550   49.9730 C   0  0  0  0  0  0  0  0  0  0  0  0
   46.9420   88.9970   47.7560 O   0  0  0  0  0  0  0  0  0  0  0  0
   46.5620   91.6940   49.0450 O   0  0  0  0  0  0  0  0  0  0  0  0
   46.5070   89.2470   48.9500 C   0  0  0  0  0  0  0  0  0  0  0  0
   50.8770   90.3470   48.7690 C   0  0  0  0  0  0  0  0  0  0  0  0
   53.3450   92.8220   45.6340 S   0  0  0  0  0  0  0  0  0  0  0  0
   44.9260   90.5530   51.4220 O   0  0  0  0  0  0  0  0  0  0  0  0
   43.8600   91.7250   49.6090 C   0  0  0  0  0  0  0  0  0  0  0  0
   52.3160   89.8310   48.5680 C   0  0  0  0  0  0  0  0  0  0  0  0
   54.7140   91.3940   49.6370 C   0  0  0  0  0  0  0  0  0  0  0  0
   52.2320   92.0580   47.6680 C   0  0  0  0  0  0  0  0  0  0  0  0
   46.6030   88.5370   50.1170 O   0  0  0  0  0  0  0  0  0  0  0  0
   45.7220   90.5970   48.9380 C   0  0  0  0  0  0  0  0  0  0  0  0
   51.8980   93.0720   46.6400 C   0  0  0  0  0  0  0  0  0  0  0  0
   44.5940   90.4910   49.9960 C   0  0  0  0  0  0  0  0  0  0  0  0
   54.1300   90.4590   48.1420 C   0  0  0  0  0  0  0  0  0  0  0  0
   48.4510   93.3290   48.9120 C   0  0  0  0  0  0  0  0  0  0  0  0
   47.9310   91.2020   49.5500 C   0  0  0  0  0  0  0  0  0  0  0  0
   54.6080   89.6920   47.9340 O   0  0  0  0  0  0  0  0  0  0  0  0
   49.4600   92.3190   49.1500 S   0  0  0  0  0  0  0  0  0  0  0  0
   48.4380   90.0800   48.8200 C   0  0  0  0  0  0  0  0  0  0  0  0
  1  8  1  0
  1 23  1  0
  2  9  1  0
  2 19  1  0
  5  7  2  0
  7 15  1  0
  8  3  1  0
  9 17  1  0
 12  8  2  0
 13  4  1  0
 14 17  1  0
 14  2  1  0
 14  1  1  0
 16  7  1  0
 16  6  1  0
 16 18  1  0
 18 11  1  0
 18 10  1  0
 19 22  1  0
 19 12  1  0
 19 13  1  0
 21  6  1  0
 23 20  1  0
 23 21  1  0
 24  3  1  0
 24 21  1  0
M  END
$$$$

     RDKit          3D

 39 42  0  0  0  0  0  0  0  0999 V2000
   51.9630   92.8620   46.2700 O   0  0  0  0  0  0  0  0  0  0  0  0
   53.3250   90.9130   50.3400 C   0  0  0  0  0  0  0  0  0  0  0  0
   52.2040   89.9120   50.0840 C   0  0  0  0  0  0  0  0  0  0  0  0
   49.7580   90.6360   50.2850 O   0  0  0  0  0  0  0  0  0  0  0  0
   50.7870   96.7100   45.6390 O   0  0  0  0  0  0  0  0  0  0  0  0
   42.7650   83.8340   49.2150 C   0  0  0  0  0  0  0  0  0  0  0  0
   51.0010   90.1360   50.8460 C   0  0  0  0  0  0  0  0  0  0  0  0
   46.2660   88.0680   46.4120 C   0  0  0  0  0  0  0  0  0  0  0  0
   55.5490   91.4140   50.0160 O   0  0  0  0  0  0  0  0  0  0  0  0
   55.8520   89.0160   48.7380 C   0  0  0  0  0  0  0  0  0  0  0  0
   53.1880   92.4600   50.1330 F   0  0  0  0  0  0  0  0  0  0  0  0
   54.6040   89.6160   48.9660 C   0  0  0  0  0  0  0  0  0  0  0  0
   55.9570   88.5340   47.5980 O   0  0  0  0  0  0  0  0  0  0  0  0
   45.5900   85.9340   46.7190 C   0  0  0  0  0  0  0  0  0  0  0  0
   48.8610   95.0220   48.9500 C   0  0  0  0  0  0  0  0  0  0  0  0
   53.3460   89.2470   48.1270 C   0  0  0  0  0  0  0  0  0  0  0  0
   51.2950   91.6760   48.8770 C   0  0  0  0  0  0  0  0  0  0  0  0
   51.0950   93.3160   47.0600 C   0  0  0  0  0  0  0  0  0  0  0  0
   48.6410   89.9890   50.8630 C   0  0  0  0  0  0  0  0  0  0  0  0
   44.3570   83.9780   47.2850 C   0  0  0  0  0  0  0  0  0  0  0  0
   48.7440   96.2470   48.0770 C   0  0  0  0  0  0  0  0  0  0  0  0
   51.2490   96.0140   46.7890 C   0  0  0  0  0  0  0  0  0  0  0  0
   46.2300   86.7500   45.8690 N   0  0  0  0  0  0  0  0  0  0  0  0
   47.5520   89.1520   50.2670 C   0  0  0  0  0  0  0  0  0  0  0  0
   45.9430   87.8880   47.9200 C   0  0  0  0  0  0  0  0  0  0  0  0
   47.7600   89.2390   48.8240 C   0  0  0  0  0  0  0  0  0  0  0  0
   52.0390   90.2130   48.5880 C   0  0  0  0  0  0  0  0  0  0  0  0
   50.6080   94.6530   47.0700 C   0  0  0  0  0  0  0  0  0  0  0  0
   56.7830   88.9390   49.5140 O   0  0  0  0  0  0  0  0  0  0  0  0
   49.1420   94.8720   47.5490 C   0  0  0  0  0  0  0  0  0  0  0  0
   44.4930   85.8320   48.8340 C   0  0  0  0  0  0  0  0  0  0  0  0
   45.0440   84.1910   44.7840 Cl  0  0  0  0  0  0  0  0  0  0  0  0
   41.8110   83.2030   48.1950 O   0  0  0  0  0  0  0  0  0  0  0  0
   47.3070   87.9780   48.3260 O   0  0  0  0  0  0  0  0  0  0  0  0
   45.3610   86.4680   47.9450 C   0  0  0  0  0  0  0  0  0  0  0  0
   50.8410   92.5790   48.1620 N   0  0  0  0  0  0  0  0  0  0  0  0
   43.9080   84.5530   48.4780 C   0  0  0  0  0  0  0  0  0  0  0  0
   54.5790   90.6530   49.7710 C   0  0  0  0  0  0  0  0  0  0  0  0
   45.0400   84.7970   46.3780 C   0  0  0  0  0  0  0  0  0  0  0  0
  1 18  2  0
  2 11  1  0
  3  2  1  0
  3  7  1  0
  4  7  1  0
  4 19  1  0
  5 22  1  0
  8 25  1  0
 10 29  1  0
 12 10  1  0
 12 38  1  0
 13 10  2  0
 14 35  1  0
 16 27  1  0
 16 12  1  0
 18 28  1  0
 18 36  1  0
 20 37  2  0
 21 15  1  0
 23  8  1  0
 23 14  1  0
 24 19  1  0
 25 35  1  0
 25 34  1  0
 26 24  1  0
 27 17  1  0
 27  3  1  0
 28 22  1  0
 28 30  1  0
 30 21  1  0
 30 15  1  0
 32 39  1  0
 33  6  1  0
 34 26  1  0
 35 31  2  0
 36 17  1  0
 37 31  1  0
 37  6  1  0
 38  9  2  0
 38  2  1  0
 39 14  2  0
 39 20  1  0
M  END
$$$$

     RDKit          3D

 14 15  0  0  0  0  0  0  0  0999 V2000
   48.2320   89.5740   48.3920 O   0  0  0  0  0  0  0  0  0  0  0  0
   54.3970   89.6500   51.3400 C   0  0  0  0  0  0  0  0  0  0  0  0
   50.1520   90.9920   49.3760 C   0  0  0  0  0  0  0  0  0  0  0  0
   52.2050   89.4190   50.1380 C   0  0  0  0  0  0  0  0  0  0  0  0
   51.4930   90.2950   49.1200 C   0  0  0  0  0  0  0  0  0  0  0  0
   46.6110   89.8690   49.9660 N   0  0  0  0  0  0  0  0  0  0  0  0
   50.1530   92.1940   50.4440 C   0  0  0  0  0  0  0  0  0  0  0  0
   52.8500   90.0860   51.6400 S   0  0  0  0  0  0  0  0  0  0  0  0
   48.9270   90.1070   49.5210 C   0  0  0  0  0  0  0  0  0  0  0  0
   47.1510   88.8460   49.0480 C   0  0  0  0  0  0  0  0  0  0  0  0
   47.8600   90.5300   50.4630 C   0  0  0  0  0  0  0  0  0  0  0  0
   53.3550   88.8190   49.5740 N   0  0  0  0  0  0  0  0  0  0  0  0
   50.2610   93.4380   49.4120 O   0  0  0  0  0  0  0  0  0  0  0  0
   54.4230   88.8760   50.4580 C   0  0  0  0  0  0  0  0  0  0  0  0
  1 10  1  0
  1  9  1  0
  2  8  1  0
  3  5  1  0
  3  7  1  0
  4  5  1  0
  4  8  1  0
  6 11  1  0
  9  3  1  0
  9 11  1  0
 10  6  1  0
 12  4  1  0
 12 14  1  0
 13  7  1  0
 14  2  1  0
M  END
$$$$

     RDKit          3D

  6  6  0  0  0  0  0  0  0  0999 V2000
   48.5580   90.5490   50.8930 O   0  0  0  0  0  0  0  0  0  0  0  0
   47.5280   89.4880   48.9470 C   0  0  0  0  0  0  0  0  0  0  0  0
   47.5530   90.7540   49.8680 C   0  0  0  0  0  0  0  0  0  0  0  0
   49.6340   90.7260   48.5930 C   0  0  0  0  0  0  0  0  0  0  0  0
   48.5780   89.8570   47.9630 O   0  0  0  0  0  0  0  0  0  0  0  0
   50.0880   90.4340   50.2610 S   0  0  0  0  0  0  0  0  0  0  0  0
  2  3  1  0
  3  1  1  0
  4  6  1  0
  5  4  1  0
  5  2  1  0
  6  1  1  0
M  END
$$$$
