
     RDKit          3D

 14 13  0  0  0  0  0  0  0  0999 V2000
   46.5740   92.1040   51.5230 Cl  0  0  0  0  0  0  0  0  0  0  0  0
   48.0030   91.5960   50.2840 C   0  0  0  0  0  0  0  0  0  0  0  0
   49.9030   89.5830   50.1030 C   0  0  0  0  0  0  0  0  0  0  0  0
   52.7870   90.5890   52.9810 O   0  0  0  0  0  0  0  0  0  0  0  0
   48.1890   90.0630   48.4020 O   0  0  0  0  0  0  0  0  0  0  0  0
   51.4510   91.3630   50.6000 C   0  0  0  0  0  0  0  0  0  0  0  0
   48.1400   90.6480   49.7250 C   0  0  0  0  0  0  0  0  0  0  0  0
   53.8340   90.2570   50.6660 O   0  0  0  0  0  0  0  0  0  0  0  0
   50.5970   90.6710   49.9660 C   0  0  0  0  0  0  0  0  0  0  0  0
   52.9590   90.9960   51.4910 P   0  0  0  0  0  0  0  0  0  0  0  0
   50.3680   91.0090   51.6920 C   0  0  0  0  0  0  0  0  0  0  0  0
   49.0570   91.9140   51.6430 O   0  0  0  0  0  0  0  0  0  0  0  0
   51.0550   88.7710   50.8240 O   0  0  0  0  0  0  0  0  0  0  0  0
   51.4620   92.8080   50.7150 O   0  0  0  0  0  0  0  0  0  0  0  0
  2  1  1  0
  2 12  1  0
  3 13  1  0
  5  7  1  0
  6 14  1  0
  6 10  1  0
  6 11  1  0
  7  2  1  0
  9  3  1  0
  9  6  1  0
 10  8  2  0
 10  4  1  0
 12 11  1  0
M  END
$$$$

     RDKit          3D

 12 13  0  0  0  0  0  0  0  0999 V2000
   46.4710   90.8980   54.3050 C   0  0  0  0  0  0  0  0  0  0  0  0
   46.8660   90.9340   51.6090 S   0  0  0  0  0  0  0  0  0  0  0  0
   48.2840   90.0110   53.6400 N   0  0  0  0  0  0  0  0  0  0  0  0
   49.2250   90.1260   52.4700 C   0  0  0  0  0  0  0  0  0  0  0  0
   47.3490   91.2020   53.3150 C   0  0  0  0  0  0  0  0  0  0  0  0
   50.3580   89.8090   50.3270 C   0  0  0  0  0  0  0  0  0  0  0  0
   50.5920   89.3960   51.9250 S   0  0  0  0  0  0  0  0  0  0  0  0
   49.3470   90.8060   50.1940 C   0  0  0  0  0  0  0  0  0  0  0  0
   46.4590   92.0770   55.1640 N   0  0  0  0  0  0  0  0  0  0  0  0
   51.3400   90.0430   49.6380 C   0  0  0  0  0  0  0  0  0  0  0  0
   48.5840   90.8990   51.4310 N   0  0  0  0  0  0  0  0  0  0  0  0
   51.4400   90.6370   48.3730 N   0  0  0  0  0  0  0  0  0  0  0  0
  1  9  1  0
  2  5  1  0
  4  7  1  0
  4  3  1  0
  5  3  1  0
  5  1  1  0
  6 10  1  0
  6  7  1  0
  8  6  1  0
 11  8  1  0
 11  2  1  0
 11  4  1  0
 12 10  1  0
M  END
$$$$

     RDKit          3D

 12 13  0  0  0  0  0  0  0  0999 V2000
   50.2230   91.4550   51.4320 C   0  0  0  0  0  0  0  0  0  0  0  0
   50.7600   90.4650   52.3940 C   0  0  0  0  0  0  0  0  0  0  0  0
   52.2460   88.9050   51.1500 C   0  0  0  0  0  0  0  0  0  0  0  0
   50.3410   91.7210   50.0910 O   0  0  0  0  0  0  0  0  0  0  0  0
   50.5090   89.7710   49.5890 C   0  0  0  0  0  0  0  0  0  0  0  0
   48.9400   89.8340   49.3740 C   0  0  0  0  0  0  0  0  0  0  0  0
   48.4220   90.2750   48.3360 O   0  0  0  0  0  0  0  0  0  0  0  0
   48.4720   89.1240   52.6650 C   0  0  0  0  0  0  0  0  0  0  0  0
   48.2260   90.0500   50.6300 O   0  0  0  0  0  0  0  0  0  0  0  0
   49.2270   90.2020   51.8240 C   0  0  0  0  0  0  0  0  0  0  0  0
   52.3980   90.4950   51.6120 S   0  0  0  0  0  0  0  0  0  0  0  0
   50.8970   88.5660   50.4720 O   0  0  0  0  0  0  0  0  0  0  0  0
  1  4  1  0
  1 10  1  0
  1  2  1  0
  2 11  1  0
  3 11  1  0
  5 12  1  0
  6  5  1  0
  6  9  1  0
  7  6  2  0
  9 10  1  0
 10  2  1  0
 10  8  1  0
 12  3  1  0
M  END
$$$$

     RDKit          3D

  7  7  0  0  0  0  0  0  0  0999 V2000
   48.2320   90.7770   50.6010 C   0  0  0  0  0  0  0  0  0  0  0  0
   50.0180   91.4240   52.0830 C   0  0  0  0  0  0  0  0  0  0  0  0
   48.7400   90.2000   51.9020 C   0  0  0  0  0  0  0  0  0  0  0  0
   47.8830   89.5810   49.6130 C   0  0  0  0  0  0  0  0  0  0  0  0
   48.8010   91.7250   50.2910 N   0  0  0  0  0  0  0  0  0  0  0  0
   49.3170   92.6800   51.3110 C   0  0  0  0  0  0  0  0  0  0  0  0
   48.1530   90.0990   48.3970 O   0  0  0  0  0  0  0  0  0  0  0  0
  1  4  1  0
  1  3  1  0
  3  2  1  0
  5  1  1  0
  5  6  1  0
  6  2  1  0
  7  4  1  0
M  END
$$$$

     RDKit          3D

 13 13  0  0  0  0  0  0  0  0999 V2000
   45.9850   87.5940   51.1740 C   0  0  0  0  0  0  0  0  0  0  0  0
   51.8940   88.5810   50.5160 C   0  0  0  0  0  0  0  0  0  0  0  0
   48.8050   90.9200   48.8580 O   0  0  0  0  0  0  0  0  0  0  0  0
   47.1280   89.4710   50.1120 C   0  0  0  0  0  0  0  0  0  0  0  0
   48.9830   90.8070   51.1460 C   0  0  0  0  0  0  0  0  0  0  0  0
   47.3460   88.8230   52.5660 O   0  0  0  0  0  0  0  0  0  0  0  0
   48.6980   89.9240   50.1060 C   0  0  0  0  0  0  0  0  0  0  0  0
   51.3300   90.7360   51.7020 C   0  0  0  0  0  0  0  0  0  0  0  0
   50.3400   91.4350   51.5670 C   0  0  0  0  0  0  0  0  0  0  0  0
   49.9130   89.4420   49.9030 O   0  0  0  0  0  0  0  0  0  0  0  0
   53.2100   88.3390   50.9870 N   0  0  0  0  0  0  0  0  0  0  0  0
   46.8070   88.5890   51.4150 C   0  0  0  0  0  0  0  0  0  0  0  0
   50.9070   88.9380   51.1710 C   0  0  0  0  0  0  0  0  0  0  0  0
  1 12  2  0
  2 11  1  0
  4 12  1  0
  5  9  1  0
  7  3  1  0
  7  4  1  0
  7  5  1  0
  9  8  1  0
 10  7  1  0
 10 13  1  0
 12  6  1  0
 13  2  1  0
 13  8  1  0
M  END
$$$$

     RDKit          3D

 13 12  0  0  0  0  0  0  0  0999 V2000
   46.5060   93.0980   52.5410 N   0  0  0  0  0  0  0  0  0  0  0  0
   44.7870   88.9560   49.2520 C   0  0  0  0  0  0  0  0  0  0  0  0
   47.0170   89.7840   51.2100 N   0  0  0  0  0  0  0  0  0  0  0  0
   48.3310   90.2000   53.3830 C   0  0  0  0  0  0  0  0  0  0  0  0
   44.9970   87.8230   50.0600 C   0  0  0  0  0  0  0  0  0  0  0  0
   45.1830   90.7310   53.0150 O   0  0  0  0  0  0  0  0  0  0  0  0
   47.0780   88.9990   50.0750 C   0  0  0  0  0  0  0  0  0  0  0  0
   48.0310   89.4070   52.1660 C   0  0  0  0  0  0  0  0  0  0  0  0
   46.4900   91.1970   51.3170 C   0  0  0  0  0  0  0  0  0  0  0  0
   49.1860   91.1930   53.2010 N   0  0  0  0  0  0  0  0  0  0  0  0
   48.0010   89.9210   54.5290 O   0  0  0  0  0  0  0  0  0  0  0  0
   45.9680   91.8150   52.3910 C   0  0  0  0  0  0  0  0  0  0  0  0
   46.3860   87.8540   50.6870 C   0  0  0  0  0  0  0  0  0  0  0  0
  2  5  1  0
  3  9  1  0
  3  8  1  0
  4 11  2  0
  5 13  1  0
  7 13  1  0
  7  3  1  0
  8  4  1  0
  9 12  1  0
 10  4  1  0
 12  1  1  0
 12  6  2  0
M  END
$$$$

     RDKit          3D

 10  9  0  0  0  0  0  0  0  0999 V2000
   50.4280   89.6350   52.6760 O   0  0  0  0  0  0  0  0  0  0  0  0
   46.9140   90.8540   51.1780 C   0  0  0  0  0  0  0  0  0  0  0  0
   47.7980   92.8420   51.7410 O   0  0  0  0  0  0  0  0  0  0  0  0
   50.3870   92.2760   51.8330 C   0  0  0  0  0  0  0  0  0  0  0  0
   49.4040   91.1860   51.4440 C   0  0  0  0  0  0  0  0  0  0  0  0
   45.6550   92.0270   51.3770 C   0  0  0  0  0  0  0  0  0  0  0  0
   51.6710   92.4250   51.6460 O   0  0  0  0  0  0  0  0  0  0  0  0
   49.9160   89.9070   51.2480 C   0  0  0  0  0  0  0  0  0  0  0  0
   49.9160   93.3590   51.2120 O   0  0  0  0  0  0  0  0  0  0  0  0
   48.1520   91.5300   51.5600 N   0  0  0  0  0  0  0  0  0  0  0  0
  2  6  1  0
  2 10  1  0
  5  8  1  0
  5 10  1  0
  5  4  1  0
  7  4  1  0
  8  1  1  0
  9  4  1  0
 10  3  1  0
M  END
$$$$

     RDKit          3D

 13 13  0  0  0  0  0  0  0  0999 V2000
   45.4990   88.2100   50.2590 N   0  0  0  0  0  0  0  0  0  0  0  0
   51.8860   90.0670   50.3860 O   0  0  0  0  0  0  0  0  0  0  0  0
   45.9060   89.8610   50.1890 C   0  0  0  0  0  0  0  0  0  0  0  0
   49.9590   89.3020   49.9000 N   0  0  0  0  0  0  0  0  0  0  0  0
   46.9630   91.6230   50.9350 O   0  0  0  0  0  0  0  0  0  0  0  0
   50.4110   91.1620   51.4670 N   0  0  0  0  0  0  0  0  0  0  0  0
   50.7670   90.1330   50.6190 C   0  0  0  0  0  0  0  0  0  0  0  0
   48.7710   92.2410   52.8670 O   0  0  0  0  0  0  0  0  0  0  0  0
   48.6520   89.1700   49.7550 C   0  0  0  0  0  0  0  0  0  0  0  0
   47.8100   90.7260   51.3490 C   0  0  0  0  0  0  0  0  0  0  0  0
   45.1860   90.6120   51.1160 C   0  0  0  0  0  0  0  0  0  0  0  0
   47.5290   89.6180   50.6620 C   0  0  0  0  0  0  0  0  0  0  0  0
   48.9930   91.0490   52.1150 C   0  0  0  0  0  0  0  0  0  0  0  0
  2  7  2  0
  3  1  1  0
  3 11  1  0
  4  7  1  0
  6 13  1  0
  7  6  1  0
  9  4  1  0
  9 12  1  0
 10  5  1  0
 10 13  1  0
 12  3  1  0
 12 10  1  0
 13  8  1  0
M  END
$$$$

     RDKit          3D

 18 19  0  0  0  0  0  0  0  0999 V2000
   47.4110   90.1190   51.1460 C   0  0  0  0  0  0  0  0  0  0  0  0
   51.1320   91.3320   50.5840 C   0  0  0  0  0  0  0  0  0  0  0  0
   50.1640   90.3890   50.8810 C   0  0  0  0  0  0  0  0  0  0  0  0
   46.1140   89.9030   49.9610 S   0  0  0  0  0  0  0  0  0  0  0  0
   45.8060   87.3590   50.9210 O   0  0  0  0  0  0  0  0  0  0  0  0
   50.9790   92.0730   51.8850 C   0  0  0  0  0  0  0  0  0  0  0  0
   48.6950   93.7310   50.9790 C   0  0  0  0  0  0  0  0  0  0  0  0
   48.6580   91.0480   50.9450 C   0  0  0  0  0  0  0  0  0  0  0  0
   50.8590   92.3900   49.4820 C   0  0  0  0  0  0  0  0  0  0  0  0
   45.1800   88.3380   53.3040 O   0  0  0  0  0  0  0  0  0  0  0  0
   50.8240   93.6050   50.0720 C   0  0  0  0  0  0  0  0  0  0  0  0
   48.5390   91.6190   49.7170 C   0  0  0  0  0  0  0  0  0  0  0  0
   48.1140   88.7040   52.6440 O   0  0  0  0  0  0  0  0  0  0  0  0
   49.0590   91.4420   52.4810 C   0  0  0  0  0  0  0  0  0  0  0  0
   45.5790   88.9130   52.1910 C   0  0  0  0  0  0  0  0  0  0  0  0
   49.9430   92.7960   51.0900 C   0  0  0  0  0  0  0  0  0  0  0  0
   46.9680   89.4940   52.3900 C   0  0  0  0  0  0  0  0  0  0  0  0
   45.2970   88.6480   50.8890 C   0  0  0  0  0  0  0  0  0  0  0  0
  1  8  1  0
  1 17  1  0
  2  3  1  0
  2  6  1  0
  3  8  1  0
  4 18  1  0
  4  1  1  0
  8 14  1  0
  9 11  1  0
  9  2  1  0
 11 16  1  0
 12  8  1  0
 15 17  1  0
 15 10  1  0
 16  7  1  0
 16  6  1  0
 17 13  1  0
 18  5  1  0
 18 15  1  0
M  END
$$$$

     RDKit          3D

 16 17  0  0  0  0  0  0  0  0999 V2000
   49.5690   89.6680   52.6700 C   0  0  0  0  0  0  0  0  0  0  0  0
   50.6240   89.7150   51.7440 C   0  0  0  0  0  0  0  0  0  0  0  0
   48.5590   91.7920   51.4790 C   0  0  0  0  0  0  0  0  0  0  0  0
   51.2930   88.5150   51.1990 C   0  0  0  0  0  0  0  0  0  0  0  0
   47.3350   90.2250   52.3120 N   0  0  0  0  0  0  0  0  0  0  0  0
   48.7720   90.7600   52.4630 C   0  0  0  0  0  0  0  0  0  0  0  0
   47.1310   92.4570   51.5190 C   0  0  0  0  0  0  0  0  0  0  0  0
   46.4560   91.0950   51.6400 C   0  0  0  0  0  0  0  0  0  0  0  0
   45.1380   90.5890   52.0190 O   0  0  0  0  0  0  0  0  0  0  0  0
   50.7500   90.9200   51.0880 N   0  0  0  0  0  0  0  0  0  0  0  0
   52.7280   88.8920   51.3270 C   0  0  0  0  0  0  0  0  0  0  0  0
   46.9440   89.0270   52.8320 O   0  0  0  0  0  0  0  0  0  0  0  0
   53.8170   89.7150   51.2410 C   0  0  0  0  0  0  0  0  0  0  0  0
   54.0960   91.0820   51.0780 C   0  0  0  0  0  0  0  0  0  0  0  0
   51.8370   91.1860   50.3470 C   0  0  0  0  0  0  0  0  0  0  0  0
   53.0130   92.1740   50.9980 C   0  0  0  0  0  0  0  0  0  0  0  0
  2  1  1  0
  3  7  1  0
  3  6  1  0
  4 11  1  0
  4  2  1  0
  5  6  1  0
  5 12  1  0
  6  1  1  0
  7  8  1  0
  8  9  2  0
  8  5  1  0
 10  2  1  0
 13 11  1  0
 14 13  2  0
 15 16  1  0
 15 10  1  0
 16 14  1  0
M  END
$$$$

     RDKit          3D

  9  9  0  0  0  0  0  0  0  0999 V2000
   50.2930   88.9820   51.0530 C   0  0  0  0  0  0  0  0  0  0  0  0
   50.2770   89.3790   53.4260 N   0  0  0  0  0  0  0  0  0  0  0  0
   50.4090   90.1000   52.0660 C   0  0  0  0  0  0  0  0  0  0  0  0
   49.3350   89.4810   49.9830 C   0  0  0  0  0  0  0  0  0  0  0  0
   48.5130   91.3090   51.1150 O   0  0  0  0  0  0  0  0  0  0  0  0
   49.1730   90.8660   49.9690 N   0  0  0  0  0  0  0  0  0  0  0  0
   49.3220   91.1350   52.1530 C   0  0  0  0  0  0  0  0  0  0  0  0
   49.2740   91.7150   48.9940 C   0  0  0  0  0  0  0  0  0  0  0  0
   48.2730   91.8890   48.3340 O   0  0  0  0  0  0  0  0  0  0  0  0
  1  3  1  0
  3  7  1  0
  3  2  1  0
  4  1  1  0
  5  7  1  0
  6  4  1  0
  6  5  1  0
  8  6  1  0
  9  8  2  0
M  END
$$$$

     RDKit          3D

 12 11  0  0  0  0  0  0  0  0999 V2000
   45.3000   89.1410   51.3690 O   0  0  0  0  0  0  0  0  0  0  0  0
   47.5180   88.4930   51.0870 C   0  0  0  0  0  0  0  0  0  0  0  0
   50.5920   93.8670   50.5070 O   0  0  0  0  0  0  0  0  0  0  0  0
   48.5470   91.0720   51.3800 C   0  0  0  0  0  0  0  0  0  0  0  0
   49.4670   91.3640   52.4040 O   0  0  0  0  0  0  0  0  0  0  0  0
   48.8620   92.1630   50.3130 C   0  0  0  0  0  0  0  0  0  0  0  0
   48.6860   89.6120   51.0160 C   0  0  0  0  0  0  0  0  0  0  0  0
   48.0060   92.7650   49.1970 C   0  0  0  0  0  0  0  0  0  0  0  0
   50.3270   92.5300   50.2110 C   0  0  0  0  0  0  0  0  0  0  0  0
   46.3710   89.4350   50.9850 C   0  0  0  0  0  0  0  0  0  0  0  0
   48.5490   92.5750   47.8940 O   0  0  0  0  0  0  0  0  0  0  0  0
   46.4980   90.5710   50.4550 O   0  0  0  0  0  0  0  0  0  0  0  0
  4  5  1  0
  6  4  1  0
  7  2  1  0
  7  4  1  0
  8  6  1  0
  9  6  1  0
  9  3  1  0
 10  2  1  0
 10  1  1  0
 11  8  1  0
 12 10  2  0
M  END
$$$$

     RDKit          3D

 16 16  0  0  0  0  0  0  0  0999 V2000
   51.4770   89.2400   50.9660 C   0  0  0  0  0  0  0  0  0  0  0  0
   52.0810   90.5700   51.0330 O   0  0  0  0  0  0  0  0  0  0  0  0
   49.5240   90.4410   52.0490 N   0  0  0  0  0  0  0  0  0  0  0  0
   46.9490   90.9030   55.0400 O   0  0  0  0  0  0  0  0  0  0  0  0
   46.7940   92.0950   50.8170 O   0  0  0  0  0  0  0  0  0  0  0  0
   52.5390   88.2140   51.3170 C   0  0  0  0  0  0  0  0  0  0  0  0
   50.2330   89.3410   51.7680 C   0  0  0  0  0  0  0  0  0  0  0  0
   47.0160   91.6610   52.9040 O   0  0  0  0  0  0  0  0  0  0  0  0
   54.6320   89.2480   50.9920 O   0  0  0  0  0  0  0  0  0  0  0  0
   47.6570   91.2350   51.2730 C   0  0  0  0  0  0  0  0  0  0  0  0
   48.7610   89.1850   55.0880 O   0  0  0  0  0  0  0  0  0  0  0  0
   53.9220   88.3240   51.5360 C   0  0  0  0  0  0  0  0  0  0  0  0
   47.5260   90.1790   52.4670 C   0  0  0  0  0  0  0  0  0  0  0  0
   47.4200   89.6360   54.4300 P   0  0  0  0  0  0  0  0  0  0  0  0
   46.4300   88.6050   54.7210 O   0  0  0  0  0  0  0  0  0  0  0  0
   49.0570   91.6450   51.4330 C   0  0  0  0  0  0  0  0  0  0  0  0
  1  2  1  0
  1  6  1  0
  1  7  1  0
  6 12  1  0
  7  3  1  0
  9 12  1  0
 10  5  1  0
 10 16  1  0
 10 13  1  0
 10  8  1  0
 13  8  1  0
 13 14  1  0
 14 15  2  0
 14  4  1  0
 14 11  1  0
 16  3  1  0
M  END
$$$$

     RDKit          3D

 14 13  0  0  0  0  0  0  0  0999 V2000
   50.9990   92.4740   51.7330 O   0  0  0  0  0  0  0  0  0  0  0  0
   46.0060   89.8270   50.0500 P   0  0  0  0  0  0  0  0  0  0  0  0
   51.1010   89.3380   51.7950 N   0  0  0  0  0  0  0  0  0  0  0  0
   49.1360   90.9830   52.2930 C   0  0  0  0  0  0  0  0  0  0  0  0
   50.5920   90.2430   52.8700 C   0  0  0  0  0  0  0  0  0  0  0  0
   48.1520   89.8530   51.6970 C   0  0  0  0  0  0  0  0  0  0  0  0
   49.6410   92.3150   51.7100 C   0  0  0  0  0  0  0  0  0  0  0  0
   45.2880   90.0940   51.3420 O   0  0  0  0  0  0  0  0  0  0  0  0
   47.5310   90.2650   50.4650 O   0  0  0  0  0  0  0  0  0  0  0  0
   49.0990   93.5140   51.8180 O   0  0  0  0  0  0  0  0  0  0  0  0
   52.5680   89.5560   51.8620 C   0  0  0  0  0  0  0  0  0  0  0  0
   47.6340   91.6350   52.8700 O   0  0  0  0  0  0  0  0  0  0  0  0
   45.3960   90.5250   48.7030 O   0  0  0  0  0  0  0  0  0  0  0  0
   45.9510   88.3400   49.8790 O   0  0  0  0  0  0  0  0  0  0  0  0
  2  9  1  0
  2  8  1  0
  3 11  1  0
  3  5  1  0
  4  5  1  0
  4 12  1  0
  6  4  1  0
  7  1  2  0
  7 10  1  0
  7  4  1  0
  9  6  1  0
 13  2  2  0
 14  2  1  0
M  END
$$$$

     RDKit          3D

 12 13  0  0  0  0  0  0  0  0999 V2000
   51.8430   90.8220   50.0030 C   0  0  0  0  0  0  0  0  0  0  0  0
   49.5310   93.4660   50.6300 C   0  0  0  0  0  0  0  0  0  0  0  0
   49.0570   91.5920   52.0540 C   0  0  0  0  0  0  0  0  0  0  0  0
   48.5750   91.1090   53.2110 N   0  0  0  0  0  0  0  0  0  0  0  0
   47.1730   89.6170   54.5170 C   0  0  0  0  0  0  0  0  0  0  0  0
   52.3620   89.6990   49.6510 C   0  0  0  0  0  0  0  0  0  0  0  0
   50.6550   92.7670   50.2880 C   0  0  0  0  0  0  0  0  0  0  0  0
   50.0950   90.7970   51.4250 C   0  0  0  0  0  0  0  0  0  0  0  0
   48.7170   92.7560   51.4620 C   0  0  0  0  0  0  0  0  0  0  0  0
   47.4170   90.5950   53.7700 C   0  0  0  0  0  0  0  0  0  0  0  0
   50.8910   91.4820   50.6800 C   0  0  0  0  0  0  0  0  0  0  0  0
   53.2710   90.8130   50.3430 C   0  0  0  0  0  0  0  0  0  0  0  0
  1 12  1  0
  1 11  1  0
  2  9  1  0
  3  4  1  0
  4 10  1  0
  6  1  1  0
  6 12  1  0
  7  2  1  0
  7 11  2  0
  8  3  1  0
  9  3  1  0
 10  5  2  0
 11  8  1  0
M  END
$$$$

     RDKit          3D

 15 15  0  0  0  0  0  0  0  0999 V2000
   48.2820   91.6850   50.5470 O   0  0  0  0  0  0  0  0  0  0  0  0
   51.4530   90.7380   50.6050 C   0  0  0  0  0  0  0  0  0  0  0  0
   53.4880   92.0970   51.0240 C   0  0  0  0  0  0  0  0  0  0  0  0
   47.3940   89.6780   52.5020 C   0  0  0  0  0  0  0  0  0  0  0  0
   47.9030   89.6800   53.6970 O   0  0  0  0  0  0  0  0  0  0  0  0
   50.3740   90.6870   51.3990 C   0  0  0  0  0  0  0  0  0  0  0  0
   48.3670   89.4280   51.3490 C   0  0  0  0  0  0  0  0  0  0  0  0
   46.2980   88.6350   52.2820 C   0  0  0  0  0  0  0  0  0  0  0  0
   46.0600   88.7880   50.9580 C   0  0  0  0  0  0  0  0  0  0  0  0
   47.3370   89.2380   50.3270 O   0  0  0  0  0  0  0  0  0  0  0  0
   50.6000   90.3810   52.6720 O   0  0  0  0  0  0  0  0  0  0  0  0
   52.1080   92.0300   50.5120 C   0  0  0  0  0  0  0  0  0  0  0  0
   45.6530   87.8840   50.2760 O   0  0  0  0  0  0  0  0  0  0  0  0
   49.0420   90.7300   50.9570 C   0  0  0  0  0  0  0  0  0  0  0  0
   44.9920   89.0070   53.0120 O   0  0  0  0  0  0  0  0  0  0  0  0
  2  6  1  0
  4  5  1  0
  6 11  1  0
  7 14  1  0
  7  4  1  0
  8  4  1  0
  8 15  1  0
  9 13  1  0
  9  8  1  0
 10  9  1  0
 10  7  1  0
 12  2  1  0
 12  3  1  0
 14  1  1  0
 14  6  1  0
M  END
$$$$

     RDKit          3D

 27 28  0  0  0  0  0  0  0  0999 V2000
   54.0470   88.6350   51.3780 O   0  0  0  0  0  0  0  0  0  0  0  0
   49.9140   91.2190   50.6610 C   0  0  0  0  0  0  0  0  0  0  0  0
   52.1380   90.7320   49.6350 C   0  0  0  0  0  0  0  0  0  0  0  0
   56.0770   87.3950   49.9100 C   0  0  0  0  0  0  0  0  0  0  0  0
   55.5590   88.9640   49.7930 C   0  0  0  0  0  0  0  0  0  0  0  0
   44.2010   91.8810   56.2720 C   0  0  0  0  0  0  0  0  0  0  0  0
   45.8710   91.8270   53.0380 C   0  0  0  0  0  0  0  0  0  0  0  0
   49.1840   91.3400   52.0080 N   0  0  0  0  0  0  0  0  0  0  0  0
   47.0830   91.3710   53.3750 C   0  0  0  0  0  0  0  0  0  0  0  0
   44.3770   92.0360   54.8870 O   0  0  0  0  0  0  0  0  0  0  0  0
   57.0860   85.3920   47.3460 C   0  0  0  0  0  0  0  0  0  0  0  0
   47.7720   91.7630   52.0710 C   0  0  0  0  0  0  0  0  0  0  0  0
   47.0860   91.9620   51.1980 O   0  0  0  0  0  0  0  0  0  0  0  0
   55.9890   85.6420   48.2600 N   0  0  0  0  0  0  0  0  0  0  0  0
   54.1670   87.2800   48.4920 C   0  0  0  0  0  0  0  0  0  0  0  0
   53.5250   90.4050   50.2010 C   0  0  0  0  0  0  0  0  0  0  0  0
   45.0570   89.8380   54.6920 C   0  0  0  0  0  0  0  0  0  0  0  0
   55.4850   86.7000   48.8660 N   0  0  0  0  0  0  0  0  0  0  0  0
   49.6100   90.5900   53.0370 C   0  0  0  0  0  0  0  0  0  0  0  0
   54.2610   89.1670   50.1470 C   0  0  0  0  0  0  0  0  0  0  0  0
   53.4900   88.3990   49.0920 C   0  0  0  0  0  0  0  0  0  0  0  0
   49.2820   91.0110   49.6670 O   0  0  0  0  0  0  0  0  0  0  0  0
   51.5410   92.7270   51.0040 O   0  0  0  0  0  0  0  0  0  0  0  0
   51.4410   91.4780   50.7370 C   0  0  0  0  0  0  0  0  0  0  0  0
   45.0130   89.8970   56.0550 C   0  0  0  0  0  0  0  0  0  0  0  0
   44.9260   90.9610   54.0580 C   0  0  0  0  0  0  0  0  0  0  0  0
   48.0460   89.8510   53.5570 S   0  0  0  0  0  0  0  0  0  0  0  0
  2 24  1  0
  2  8  1  0
  3 16  1  0
  3 24  1  0
  5  4  1  0
  5 20  1  0
  8 12  1  0
  8 19  1  0
  9  7  1  0
  9 27  1  0
 10  6  1  0
 11 14  1  0
 12  9  1  0
 13 12  2  0
 14 18  1  0
 15 18  1  0
 15 21  2  0
 17 25  2  0
 18  4  1  0
 19 27  1  0
 20 16  1  0
 20  1  1  0
 21 20  1  0
 22  2  2  0
 24 23  1  0
 26  7  1  0
 26 17  1  0
 26 10  1  0
M  END
$$$$

     RDKit          3D

 12 12  0  0  0  0  0  0  0  0999 V2000
   52.7250   92.1220   51.8680 O   0  0  0  0  0  0  0  0  0  0  0  0
   47.0720   89.4690   51.8620 C   0  0  0  0  0  0  0  0  0  0  0  0
   50.3750   93.4880   51.6630 O   0  0  0  0  0  0  0  0  0  0  0  0
   48.2760   89.4970   52.4920 N   0  0  0  0  0  0  0  0  0  0  0  0
   49.6410   92.6280   50.8390 C   0  0  0  0  0  0  0  0  0  0  0  0
   47.5930   91.3940   50.7680 N   0  0  0  0  0  0  0  0  0  0  0  0
   51.9730   91.4810   51.2160 C   0  0  0  0  0  0  0  0  0  0  0  0
   46.7470   90.4590   51.0050 C   0  0  0  0  0  0  0  0  0  0  0  0
   50.8560   90.6200   52.0890 C   0  0  0  0  0  0  0  0  0  0  0  0
   48.9030   91.4630   51.4970 C   0  0  0  0  0  0  0  0  0  0  0  0
   49.2110   90.3970   52.0460 C   0  0  0  0  0  0  0  0  0  0  0  0
   51.9810   91.2290   49.9960 O   0  0  0  0  0  0  0  0  0  0  0  0
  2  4  1  0
  5 10  1  0
  5  3  1  0
  6  8  1  0
  6 10  2  0
  7  1  1  0
  7  9  1  0
  8  2  2  0
 10 11  1  0
 11  9  1  0
 11  4  2  0
 12  7  2  0
M  END
$$$$

     RDKit          3D

 13 12  0  0  0  0  0  0  0  0999 V2000
   51.4910   90.9280   51.0690 C   0  0  0  0  0  0  0  0  0  0  0  0
   47.9330   91.7390   53.0360 O   0  0  0  0  0  0  0  0  0  0  0  0
   50.2210   90.9750   50.3800 C   0  0  0  0  0  0  0  0  0  0  0  0
   48.6050   90.8990   52.5410 C   0  0  0  0  0  0  0  0  0  0  0  0
   52.5920   91.0990   49.9620 C   0  0  0  0  0  0  0  0  0  0  0  0
   53.8420   90.8700   50.2460 O   0  0  0  0  0  0  0  0  0  0  0  0
   47.7600   91.5560   50.1170 C   0  0  0  0  0  0  0  0  0  0  0  0
   49.1090   90.1500   53.6170 O   0  0  0  0  0  0  0  0  0  0  0  0
   47.9280   92.7820   50.1910 O   0  0  0  0  0  0  0  0  0  0  0  0
   48.8720   90.7200   51.0710 C   0  0  0  0  0  0  0  0  0  0  0  0
   50.6060   89.8100   49.2530 C   0  0  0  0  0  0  0  0  0  0  0  0
   51.4490   91.3970   52.7300 S   0  0  0  0  0  0  0  0  0  0  0  0
   51.3790   88.7380   49.5330 O   0  0  0  0  0  0  0  0  0  0  0  0
  1 12  1  0
  3 11  1  0
  3  1  1  0
  3 10  1  0
  4  2  2  0
  4  8  1  0
  5  6  1  0
  5  1  1  0
  7  9  1  0
 10  7  1  0
 10  4  1  0
 11 13  1  0
M  END
$$$$

     RDKit          3D

 16 17  0  0  0  0  0  0  0  0999 V2000
   49.8270   90.0820   53.4030 C   0  0  0  0  0  0  0  0  0  0  0  0
   51.6550   90.5840   51.8980 C   0  0  0  0  0  0  0  0  0  0  0  0
   48.9130   90.8550   49.7290 C   0  0  0  0  0  0  0  0  0  0  0  0
   50.3030   91.3620   49.3330 C   0  0  0  0  0  0  0  0  0  0  0  0
   47.8330   92.8150   48.4900 C   0  0  0  0  0  0  0  0  0  0  0  0
   50.1870   92.4150   48.0790 C   0  0  0  0  0  0  0  0  0  0  0  0
   51.2660   90.1090   53.1310 C   0  0  0  0  0  0  0  0  0  0  0  0
   48.7820   93.0580   48.0040 C   0  0  0  0  0  0  0  0  0  0  0  0
   49.0280   90.4150   51.1490 C   0  0  0  0  0  0  0  0  0  0  0  0
   53.7600   90.1680   50.0540 O   0  0  0  0  0  0  0  0  0  0  0  0
   47.9110   91.4820   49.5010 C   0  0  0  0  0  0  0  0  0  0  0  0
   52.2540   89.8680   48.4940 O   0  0  0  0  0  0  0  0  0  0  0  0
   48.8890   90.3970   52.3810 C   0  0  0  0  0  0  0  0  0  0  0  0
   51.4010   90.6200   50.3270 C   0  0  0  0  0  0  0  0  0  0  0  0
   46.4830   90.4460   49.5830 Cl  0  0  0  0  0  0  0  0  0  0  0  0
   52.5680   90.3060   49.4820 C   0  0  0  0  0  0  0  0  0  0  0  0
  2  7  1  0
  3  9  1  0
  4  6  1  0
  4  3  1  0
  4 14  1  0
  5 11  1  0
  7  1  2  0
  8  6  1  0
  8  5  1  0
  9 13  1  0
 11 15  1  0
 11  3  1  0
 12 16  2  0
 13  1  1  0
 14 16  1  0
 14  2  1  0
 16 10  1  0
M  END
$$$$
