
     RDKit          3D

 10 12  0  0  0  0  0  0  0  0999 V2000
   47.6590   92.6780   49.3240 O   0  0  0  0  0  0  0  0  0  0  0  0
   49.4190   91.8580   48.2730 C   0  0  0  0  0  0  0  0  0  0  0  0
   49.5460   93.8770   49.9280 C   0  0  0  0  0  0  0  0  0  0  0  0
   50.6340   92.9350   50.1770 O   0  0  0  0  0  0  0  0  0  0  0  0
   49.7050   94.3520   48.2400 C   0  0  0  0  0  0  0  0  0  0  0  0
   50.7210   93.9100   47.5210 C   0  0  0  0  0  0  0  0  0  0  0  0
   48.8290   92.4250   49.5440 C   0  0  0  0  0  0  0  0  0  0  0  0
   48.5710   95.1010   49.1250 C   0  0  0  0  0  0  0  0  0  0  0  0
   49.1590   92.9730   47.3990 C   0  0  0  0  0  0  0  0  0  0  0  0
   47.2830   94.2310   49.2040 C   0  0  0  0  0  0  0  0  0  0  0  0
  1  7  1  0
  3  4  1  0
  5  6  1  0
  5  8  1  0
  5  3  1  0
  7  2  1  0
  7  3  1  0
  8 10  1  0
  8  3  1  0
  9  5  1  0
  9  2  1  0
 10  1  1  0
M  END
$$$$

     RDKit          3D

  9  8  0  0  0  0  0  0  0  0999 V2000
   46.1280   93.7170   48.5710 O   0  0  0  0  0  0  0  0  0  0  0  0
   46.7540   92.6180   50.7970 O   0  0  0  0  0  0  0  0  0  0  0  0
   47.8200   93.9950   49.2820 C   0  0  0  0  0  0  0  0  0  0  0  0
   49.3510   93.7410   49.6330 C   0  0  0  0  0  0  0  0  0  0  0  0
   49.7500   92.3200   49.4150 C   0  0  0  0  0  0  0  0  0  0  0  0
   51.2230   92.3130   49.6860 O   0  0  0  0  0  0  0  0  0  0  0  0
   50.3820   94.5020   49.0240 O   0  0  0  0  0  0  0  0  0  0  0  0
   47.0510   91.8710   49.6170 C   0  0  0  0  0  0  0  0  0  0  0  0
   47.1730   93.0840   48.8720 N   0  0  0  0  0  0  0  0  0  0  0  0
  1  9  1  0
  3  4  1  0
  4  7  1  0
  5  4  1  0
  5  6  1  0
  8  2  1  0
  9  3  1  0
  9  8  1  0
M  END
$$$$

     RDKit          3D

 11 11  0  0  0  0  0  0  0  0999 V2000
   47.8230   93.4220   49.5420 C   0  0  0  0  0  0  0  0  0  0  0  0
   49.6170   91.9950   50.5110 C   0  0  0  0  0  0  0  0  0  0  0  0
   50.4740   91.5570   49.0950 C   0  0  0  0  0  0  0  0  0  0  0  0
   48.4810   91.3000   50.3700 C   0  0  0  0  0  0  0  0  0  0  0  0
   49.6910   91.0480   50.8830 C   0  0  0  0  0  0  0  0  0  0  0  0
   49.1310   91.0840   48.9130 C   0  0  0  0  0  0  0  0  0  0  0  0
   49.2010   93.4250   50.2880 C   0  0  0  0  0  0  0  0  0  0  0  0
   51.4080   91.0680   49.6950 F   0  0  0  0  0  0  0  0  0  0  0  0
   50.1910   92.8930   51.0160 C   0  0  0  0  0  0  0  0  0  0  0  0
   50.7180   91.6680   47.8420 F   0  0  0  0  0  0  0  0  0  0  0  0
   48.1980   92.0210   48.8040 C   0  0  0  0  0  0  0  0  0  0  0  0
  2  5  1  0
  2  9  1  0
  3  8  1  0
  4  5  1  0
  6  3  1  0
  7  1  1  0
  7  2  1  0
  7  9  1  0
 10  3  1  0
 11  6  1  0
 11  1  1  0
M  END
$$$$

     RDKit          3D

 10 10  0  0  0  0  0  0  0  0999 V2000
   49.6290   90.9260   48.6090 C   0  0  0  0  0  0  0  0  0  0  0  0
   48.6490   90.2960   47.8170 O   0  0  0  0  0  0  0  0  0  0  0  0
   50.6350   93.7700   48.5330 C   0  0  0  0  0  0  0  0  0  0  0  0
   46.5040   92.0730   50.9460 S   0  0  0  0  0  0  0  0  0  0  0  0
   48.9260   91.3210   49.9860 C   0  0  0  0  0  0  0  0  0  0  0  0
   50.0950   92.3590   50.5370 C   0  0  0  0  0  0  0  0  0  0  0  0
   51.1770   92.4470   49.5900 N   0  0  0  0  0  0  0  0  0  0  0  0
   51.1490   91.3260   48.6360 C   0  0  0  0  0  0  0  0  0  0  0  0
   47.6830   92.4920   49.6790 S   0  0  0  0  0  0  0  0  0  0  0  0
   51.9630   90.1060   48.9720 C   0  0  0  0  0  0  0  0  0  0  0  0
  1  2  1  0
  1  8  1  0
  1  5  1  0
  3  7  1  0
  5  9  1  0
  5  6  1  0
  7  6  1  0
  8 10  1  0
  8  7  1  0
  9  4  1  0
M  END
$$$$

     RDKit          3D

 12 12  0  0  0  0  0  0  0  0999 V2000
   48.0560   89.9240   49.0040 C   0  0  0  0  0  0  0  0  0  0  0  0
   49.1870   90.4750   49.7350 C   0  0  0  0  0  0  0  0  0  0  0  0
   47.2170   92.3360   48.2440 O   0  0  0  0  0  0  0  0  0  0  0  0
   48.9160   93.9340   49.1710 C   0  0  0  0  0  0  0  0  0  0  0  0
   46.7080   89.8910   49.5570 O   0  0  0  0  0  0  0  0  0  0  0  0
   50.6960   90.1930   49.6140 C   0  0  0  0  0  0  0  0  0  0  0  0
   47.1680   92.1260   50.8870 O   0  0  0  0  0  0  0  0  0  0  0  0
   50.0760   92.2460   47.7100 O   0  0  0  0  0  0  0  0  0  0  0  0
   49.9970   92.5330   49.0790 C   0  0  0  0  0  0  0  0  0  0  0  0
   49.3750   91.8670   49.8020 N   0  0  0  0  0  0  0  0  0  0  0  0
   51.0690   89.5020   50.8450 C   0  0  0  0  0  0  0  0  0  0  0  0
   48.0150   92.5380   49.6140 P   0  0  0  0  0  0  0  0  0  0  0  0
  1  5  1  0
  2  1  1  0
  2 10  1  0
  4 12  1  0
  6  2  1  0
  6 11  1  0
  9  8  1  0
  9  4  1  0
  9 10  1  0
 12  3  2  0
 12 10  1  0
 12  7  1  0
M  END
$$$$

     RDKit          3D

 10 10  0  0  0  0  0  0  0  0999 V2000
   47.5610   92.0470   50.9160 O   0  0  0  0  0  0  0  0  0  0  0  0
   50.5470   91.9800   48.0840 S   0  0  0  0  0  0  0  0  0  0  0  0
   50.4900   89.4870   50.0820 C   0  0  0  0  0  0  0  0  0  0  0  0
   49.6110   91.8240   49.5660 C   0  0  0  0  0  0  0  0  0  0  0  0
   52.2840   91.2410   49.9070 C   0  0  0  0  0  0  0  0  0  0  0  0
   47.5570   92.8630   49.3420 O   0  0  0  0  0  0  0  0  0  0  0  0
   51.8720   92.3310   48.8990 C   0  0  0  0  0  0  0  0  0  0  0  0
   48.1190   92.3120   49.9990 C   0  0  0  0  0  0  0  0  0  0  0  0
   49.3270   90.2750   49.7040 C   0  0  0  0  0  0  0  0  0  0  0  0
   51.7820   90.0000   49.3750 C   0  0  0  0  0  0  0  0  0  0  0  0
  2  7  1  0
  2  4  1  0
  4  9  1  0
  4  8  1  0
  6  8  2  0
  7  5  1  0
  8  1  1  0
  9  3  1  0
 10  5  1  0
 10  3  1  0
M  END
$$$$

     RDKit          3D

  9  8  0  0  0  0  0  0  0  0999 V2000
   49.7560   93.9690   50.3580 C   0  0  0  0  0  0  0  0  0  0  0  0
   48.0420   90.8060   48.2770 O   0  0  0  0  0  0  0  0  0  0  0  0
   48.6690   93.7960   50.7660 O   0  0  0  0  0  0  0  0  0  0  0  0
   48.6480   93.3390   47.5860 O   0  0  0  0  0  0  0  0  0  0  0  0
   50.0610   91.9210   48.8920 C   0  0  0  0  0  0  0  0  0  0  0  0
   50.7140   92.9680   49.7970 C   0  0  0  0  0  0  0  0  0  0  0  0
   48.5730   92.1420   48.6340 C   0  0  0  0  0  0  0  0  0  0  0  0
   50.7480   91.6720   47.7760 O   0  0  0  0  0  0  0  0  0  0  0  0
   50.1990   95.1360   50.3420 O   0  0  0  0  0  0  0  0  0  0  0  0
  1  3  1  0
  2  7  1  0
  4  7  1  0
  5  8  1  0
  5  6  1  0
  6  1  1  0
  7  5  1  0
  9  1  2  0
M  END
$$$$

     RDKit          3D

 12 14  0  0  0  0  0  0  0  0999 V2000
   49.1110   91.2280   48.4180 C   0  0  0  0  0  0  0  0  0  0  0  0
   50.4550   90.9390   52.0420 O   0  0  0  0  0  0  0  0  0  0  0  0
   50.2150   90.3790   50.6320 C   0  0  0  0  0  0  0  0  0  0  0  0
   47.5920   91.0700   48.7380 C   0  0  0  0  0  0  0  0  0  0  0  0
   49.0620   89.2700   50.5180 C   0  0  0  0  0  0  0  0  0  0  0  0
   46.9740   89.7350   49.4890 C   0  0  0  0  0  0  0  0  0  0  0  0
   50.0950   91.5410   49.6180 C   0  0  0  0  0  0  0  0  0  0  0  0
   49.0780   88.5020   49.2740 O   0  0  0  0  0  0  0  0  0  0  0  0
   47.7770   90.0190   50.8320 N   0  0  0  0  0  0  0  0  0  0  0  0
   51.5580   90.6960   51.3090 C   0  0  0  0  0  0  0  0  0  0  0  0
   51.3660   92.0870   49.3470 N   0  0  0  0  0  0  0  0  0  0  0  0
   52.3980   91.1850   50.1430 C   0  0  0  0  0  0  0  0  0  0  0  0
  1  4  1  0
  3 10  1  0
  3  2  1  0
  4  6  1  0
  5  8  1  0
  5  3  1  0
  5  9  1  0
  6  9  1  0
  7  1  1  0
  7  3  1  0
 10 12  1  0
 10  2  1  0
 11  7  1  0
 11 12  1  0
M  END
$$$$

     RDKit          3D

  9  9  0  0  0  0  0  0  0  0999 V2000
   50.1520   93.4980   46.7590 C   0  0  0  0  0  0  0  0  0  0  0  0
   50.2300   93.0100   48.1800 C   0  0  0  0  0  0  0  0  0  0  0  0
   49.8980   94.9200   46.7430 O   0  0  0  0  0  0  0  0  0  0  0  0
   49.2240   91.8220   48.5840 C   0  0  0  0  0  0  0  0  0  0  0  0
   51.1770   93.2240   48.8290 O   0  0  0  0  0  0  0  0  0  0  0  0
   49.6070   89.7690   49.6640 C   0  0  0  0  0  0  0  0  0  0  0  0
   48.0970   90.8820   48.8190 C   0  0  0  0  0  0  0  0  0  0  0  0
   50.2450   90.5330   48.7290 O   0  0  0  0  0  0  0  0  0  0  0  0
   48.3730   90.1990   49.6450 C   0  0  0  0  0  0  0  0  0  0  0  0
  1  2  1  0
  2  5  2  0
  3  1  1  0
  4  2  1  0
  4  8  1  0
  4  7  1  0
  7  9  1  0
  8  6  1  0
  9  6  1  0
M  END
$$$$

     RDKit          3D

  9  8  0  0  0  0  0  0  0  0999 V2000
   47.8550   92.6550   50.7330 O   0  0  0  0  0  0  0  0  0  0  0  0
   50.0090   90.0100   49.0610 N   0  0  0  0  0  0  0  0  0  0  0  0
   49.1470   93.3930   48.8800 O   0  0  0  0  0  0  0  0  0  0  0  0
   53.1320   88.9290   48.0990 C   0  0  0  0  0  0  0  0  0  0  0  0
   49.8300   91.1450   49.9400 C   0  0  0  0  0  0  0  0  0  0  0  0
   48.4930   92.1180   49.4400 S   0  0  0  0  0  0  0  0  0  0  0  0
   47.5820   91.7920   48.4460 O   0  0  0  0  0  0  0  0  0  0  0  0
   52.3570   89.2700   49.2250 C   0  0  0  0  0  0  0  0  0  0  0  0
   51.1980   89.6210   49.2140 N   0  0  0  0  0  0  0  0  0  0  0  0
  2  9  1  0
  2  5  1  0
  3  6  1  0
  4  8  1  0
  6  5  1  0
  6  1  1  0
  7  6  1  0
  9  8  1  0
M  END
$$$$

     RDKit          3D

  9 10  0  0  0  0  0  0  0  0999 V2000
   46.6670   91.8690   49.7820 O   0  0  0  0  0  0  0  0  0  0  0  0
   51.0630   91.4710   51.4780 N   0  0  0  0  0  0  0  0  0  0  0  0
   47.3850   92.9250   49.7440 C   0  0  0  0  0  0  0  0  0  0  0  0
   49.6010   92.0900   49.7130 C   0  0  0  0  0  0  0  0  0  0  0  0
   48.6010   92.5260   50.5900 O   0  0  0  0  0  0  0  0  0  0  0  0
   50.4470   91.0490   50.2720 C   0  0  0  0  0  0  0  0  0  0  0  0
   48.7130   91.7190   48.5190 C   0  0  0  0  0  0  0  0  0  0  0  0
   47.5320   90.9960   49.0470 C   0  0  0  0  0  0  0  0  0  0  0  0
   47.8850   93.1560   48.3920 O   0  0  0  0  0  0  0  0  0  0  0  0
  3  9  1  0
  3  1  1  0
  3  5  1  0
  4  6  1  0
  4  5  1  0
  6  2  1  0
  7  8  1  0
  7  4  1  0
  8  1  1  0
  9  7  1  0
M  END
$$$$

     RDKit          3D

  9  8  0  0  0  0  0  0  0  0999 V2000
   47.1620   90.6630   51.4650 O   0  0  0  0  0  0  0  0  0  0  0  0
   48.6750   89.2140   50.8130 O   0  0  0  0  0  0  0  0  0  0  0  0
   48.3530   90.4170   51.1060 C   0  0  0  0  0  0  0  0  0  0  0  0
   51.5750   91.6740   50.2380 O   0  0  0  0  0  0  0  0  0  0  0  0
   48.8070   92.2060   49.7610 C   0  0  0  0  0  0  0  0  0  0  0  0
   46.9120   92.8260   48.3880 O   0  0  0  0  0  0  0  0  0  0  0  0
   49.2850   91.5080   50.9770 C   0  0  0  0  0  0  0  0  0  0  0  0
   47.4980   92.4450   49.2780 C   0  0  0  0  0  0  0  0  0  0  0  0
   50.6190   90.9400   50.9650 C   0  0  0  0  0  0  0  0  0  0  0  0
  2  3  2  0
  3  1  1  0
  4  9  1  0
  6  8  2  0
  7  5  1  0
  7  3  1  0
  8  5  1  0
  9  7  1  0
M  END
$$$$

     RDKit          3D

  8  8  0  0  0  0  0  0  0  0999 V2000
   47.5730   92.6740   48.7520 C   0  0  0  0  0  0  0  0  0  0  0  0
   48.7230   93.5540   48.6220 N   0  0  0  0  0  0  0  0  0  0  0  0
   47.9580   91.3760   49.1650 C   0  0  0  0  0  0  0  0  0  0  0  0
   51.5060   93.0970   49.4370 O   0  0  0  0  0  0  0  0  0  0  0  0
   49.1380   90.7860   49.1390 C   0  0  0  0  0  0  0  0  0  0  0  0
   51.1230   91.5300   50.4430 O   0  0  0  0  0  0  0  0  0  0  0  0
   49.3610   93.0450   49.6630 C   0  0  0  0  0  0  0  0  0  0  0  0
   50.4320   92.0220   49.3500 C   0  0  0  0  0  0  0  0  0  0  0  0
  1  3  1  0
  2  1  1  0
  2  7  1  0
  5  3  1  0
  5  8  1  0
  8  4  1  0
  8  7  1  0
  8  6  1  0
M  END
$$$$

     RDKit          3D

  9  9  0  0  0  0  0  0  0  0999 V2000
   51.4790   91.1530   51.0640 O   0  0  0  0  0  0  0  0  0  0  0  0
   50.6800   91.5460   50.4460 C   0  0  0  0  0  0  0  0  0  0  0  0
   48.3840   90.0020   48.5900 C   0  0  0  0  0  0  0  0  0  0  0  0
   48.5400   90.5110   51.5860 O   0  0  0  0  0  0  0  0  0  0  0  0
   50.4960   92.8580   50.3270 O   0  0  0  0  0  0  0  0  0  0  0  0
   49.1190   91.1040   48.6470 C   0  0  0  0  0  0  0  0  0  0  0  0
   49.5130   91.0320   49.8500 N   0  0  0  0  0  0  0  0  0  0  0  0
   48.2410   90.9110   50.4960 C   0  0  0  0  0  0  0  0  0  0  0  0
   47.8470   89.5470   49.8250 C   0  0  0  0  0  0  0  0  0  0  0  0
  2  1  1  0
  3  6  1  0
  3  9  1  0
  5  2  2  0
  6  7  1  0
  7  2  1  0
  7  8  1  0
  8  4  1  0
  9  8  1  0
M  END
$$$$

     RDKit          3D

  8  9  0  0  0  0  0  0  0  0999 V2000
   49.8830   90.1860   48.8460 C   0  0  0  0  0  0  0  0  0  0  0  0
   47.5670   91.5880   49.4870 C   0  0  0  0  0  0  0  0  0  0  0  0
   49.7500   92.6210   47.8000 C   0  0  0  0  0  0  0  0  0  0  0  0
   50.4540   91.3460   48.2410 C   0  0  0  0  0  0  0  0  0  0  0  0
   48.7520   93.3720   48.0180 C   0  0  0  0  0  0  0  0  0  0  0  0
   47.4250   92.7350   48.7130 C   0  0  0  0  0  0  0  0  0  0  0  0
   49.7740   93.9470   47.2810 S   0  0  0  0  0  0  0  0  0  0  0  0
   48.3710   90.4640   48.9360 C   0  0  0  0  0  0  0  0  0  0  0  0
  1  8  1  0
  3  5  1  0
  3  4  1  0
  4  1  1  0
  5  6  1  0
  6  2  1  0
  7  3  1  0
  7  5  1  0
  8  2  1  0
M  END
$$$$

     RDKit          3D

 11 11  0  0  0  0  0  0  0  0999 V2000
   53.0860   91.1080   49.6930 C   0  0  0  0  0  0  0  0  0  0  0  0
   51.5040   92.7280   49.6890 C   0  0  0  0  0  0  0  0  0  0  0  0
   50.7360   93.5860   48.5510 C   0  0  0  0  0  0  0  0  0  0  0  0
   47.7890   93.4600   50.2600 O   0  0  0  0  0  0  0  0  0  0  0  0
   48.0460   92.6510   49.5390 C   0  0  0  0  0  0  0  0  0  0  0  0
   48.8200   91.5100   49.4850 C   0  0  0  0  0  0  0  0  0  0  0  0
   50.9050   90.3780   48.8160 C   0  0  0  0  0  0  0  0  0  0  0  0
   48.4940   90.3610   48.8000 N   0  0  0  0  0  0  0  0  0  0  0  0
   49.6130   91.0900   48.4740 C   0  0  0  0  0  0  0  0  0  0  0  0
   47.7160   93.1150   48.1820 O   0  0  0  0  0  0  0  0  0  0  0  0
   51.6620   91.3130   49.6570 N   0  0  0  0  0  0  0  0  0  0  0  0
  3  2  1  0
  5  4  1  0
  6  5  1  0
  7 11  1  0
  8  6  1  0
  9  8  1  0
  9  7  1  0
  9  6  1  0
 10  5  2  0
 11  2  1  0
 11  1  1  0
M  END
$$$$

     RDKit          3D

  9  8  0  0  0  0  0  0  0  0999 V2000
   47.3260   91.6370   49.0760 O   0  0  0  0  0  0  0  0  0  0  0  0
   48.3260   90.7790   48.6550 C   0  0  0  0  0  0  0  0  0  0  0  0
   51.7820   92.4290   49.3970 O   0  0  0  0  0  0  0  0  0  0  0  0
   49.7590   93.4020   49.1870 O   0  0  0  0  0  0  0  0  0  0  0  0
   49.3130   90.9960   49.6890 C   0  0  0  0  0  0  0  0  0  0  0  0
   50.2870   91.7920   47.5120 O   0  0  0  0  0  0  0  0  0  0  0  0
   48.0130   90.0840   47.7670 O   0  0  0  0  0  0  0  0  0  0  0  0
   49.2660   91.0290   51.4270 S   0  0  0  0  0  0  0  0  0  0  0  0
   50.4510   92.1360   48.9740 S   0  0  0  0  0  0  0  0  0  0  0  0
  2  1  1  0
  2  5  1  0
  5  8  2  0
  6  9  1  0
  7  2  2  0
  9  4  1  0
  9  3  1  0
  9  5  1  0
M  END
$$$$

     RDKit          3D

 19 20  0  0  0  0  0  0  0  0999 V2000
   53.3640   88.4720   50.9520 C   0  0  0  0  0  0  0  0  0  0  0  0
   50.0400   89.3520   49.4340 O   0  0  0  0  0  0  0  0  0  0  0  0
   44.2580   88.4910   49.5220 O   0  0  0  0  0  0  0  0  0  0  0  0
   47.0160   90.2360   50.3070 O   0  0  0  0  0  0  0  0  0  0  0  0
   47.6580   89.2390   50.0220 C   0  0  0  0  0  0  0  0  0  0  0  0
   51.6860   90.2610   50.7950 O   0  0  0  0  0  0  0  0  0  0  0  0
   46.4560   90.8280   49.4120 O   0  0  0  0  0  0  0  0  0  0  0  0
   49.9510   91.8320   48.3990 C   0  0  0  0  0  0  0  0  0  0  0  0
   51.1180   90.0380   49.5370 C   0  0  0  0  0  0  0  0  0  0  0  0
   44.4500   90.2030   48.8200 C   0  0  0  0  0  0  0  0  0  0  0  0
   45.9760   90.1270   48.6300 C   0  0  0  0  0  0  0  0  0  0  0  0
   53.1290   89.9920   51.0690 C   0  0  0  0  0  0  0  0  0  0  0  0
   43.6220   88.9800   48.2460 C   0  0  0  0  0  0  0  0  0  0  0  0
   51.8780   92.5870   49.3830 O   0  0  0  0  0  0  0  0  0  0  0  0
   51.2040   91.6640   49.1260 C   0  0  0  0  0  0  0  0  0  0  0  0
   48.7040   89.6500   48.9690 C   0  0  0  0  0  0  0  0  0  0  0  0
   43.8450   91.4590   48.0610 C   0  0  0  0  0  0  0  0  0  0  0  0
   48.5620   91.1840   49.2960 C   0  0  0  0  0  0  0  0  0  0  0  0
   54.5430   88.2420   50.2540 O   0  0  0  0  0  0  0  0  0  0  0  0
  1 12  1  0
  2  9  1  0
  5  4  1  0
  6 12  1  0
  7  4  1  0
  8 15  1  0
  8 18  1  0
  9  6  1  0
 10 17  1  0
 10  3  1  0
 11 10  1  0
 11  7  1  0
 13 10  1  0
 13  3  1  0
 15 14  2  0
 15  9  1  0
 16 18  1  0
 16  2  1  0
 16  5  1  0
 19  1  1  0
M  END
$$$$

     RDKit          3D

 11 12  0  0  0  0  0  0  0  0999 V2000
   48.7290   93.2980   51.2340 O   0  0  0  0  0  0  0  0  0  0  0  0
   49.8350   90.9960   50.0490 O   0  0  0  0  0  0  0  0  0  0  0  0
   48.3640   92.4920   50.6090 C   0  0  0  0  0  0  0  0  0  0  0  0
   45.9870   94.1360   48.7240 C   0  0  0  0  0  0  0  0  0  0  0  0
   47.4860   93.3380   50.4900 N   0  0  0  0  0  0  0  0  0  0  0  0
   48.4810   93.5610   48.0690 S   0  0  0  0  0  0  0  0  0  0  0  0
   48.8760   91.9380   48.3840 C   0  0  0  0  0  0  0  0  0  0  0  0
   49.6410   92.0360   49.6710 C   0  0  0  0  0  0  0  0  0  0  0  0
   45.3740   92.8120   48.5560 O   0  0  0  0  0  0  0  0  0  0  0  0
   45.7210   95.1490   48.0420 O   0  0  0  0  0  0  0  0  0  0  0  0
   47.2890   93.8820   49.2060 C   0  0  0  0  0  0  0  0  0  0  0  0
  3  1  1  0
  5  3  1  0
  5  1  1  0
  6  7  1  0
  6 11  1  0
  7  8  1  0
  8  2  1  0
  8  3  1  0
  9  4  1  0
 10  4  2  0
 11  4  1  0
 11  5  1  0
M  END
$$$$

     RDKit          3D

  8  8  0  0  0  0  0  0  0  0999 V2000
   48.1910   90.3370   47.7810 O   0  0  0  0  0  0  0  0  0  0  0  0
   49.7440   92.5110   50.8180 N   0  0  0  0  0  0  0  0  0  0  0  0
   47.7540   91.8080   49.6830 C   0  0  0  0  0  0  0  0  0  0  0  0
   50.7800   91.6220   50.2960 C   0  0  0  0  0  0  0  0  0  0  0  0
   50.3670   93.8690   50.1140 O   0  0  0  0  0  0  0  0  0  0  0  0
   49.9860   90.6300   49.5090 C   0  0  0  0  0  0  0  0  0  0  0  0
   48.3330   92.9200   50.4470 C   0  0  0  0  0  0  0  0  0  0  0  0
   49.0550   91.4870   48.5550 C   0  0  0  0  0  0  0  0  0  0  0  0
  1  8  1  0
  3  7  1  0
  4  2  1  0
  5  2  1  0
  6  4  1  0
  7  2  1  0
  8  6  1  0
  8  3  1  0
M  END
$$$$
