
     RDKit          3D

  9  8  0  0  0  0  0  0  0  0999 V2000
   48.5480   91.1860   49.8530 C   0  0  0  0  0  0  0  0  0  0  0  0
   45.8630   88.1710   52.8000 O   0  0  0  0  0  0  0  0  0  0  0  0
   48.6360   92.0440   50.9770 O   0  0  0  0  0  0  0  0  0  0  0  0
   45.1380   89.0490   52.2370 C   0  0  0  0  0  0  0  0  0  0  0  0
   46.4130   90.1720   50.5360 O   0  0  0  0  0  0  0  0  0  0  0  0
   47.9210   89.8900   50.4460 C   0  0  0  0  0  0  0  0  0  0  0  0
   47.7100   88.3180   50.2690 O   0  0  0  0  0  0  0  0  0  0  0  0
   44.1100   89.3700   52.6220 O   0  0  0  0  0  0  0  0  0  0  0  0
   45.4440   89.2530   50.6620 C   0  0  0  0  0  0  0  0  0  0  0  0
  1  6  1  0
  1  3  1  0
  4  8  2  0
  4  2  1  0
  5  9  1  0
  6  7  1  0
  6  5  1  0
  9  4  1  0
M  END
$$$$

     RDKit          3D

  8  7  0  0  0  0  0  0  0  0999 V2000
   47.9800   90.1290   49.0510 O   0  0  0  0  0  0  0  0  0  0  0  0
   47.1730   90.4370   50.1080 C   0  0  0  0  0  0  0  0  0  0  0  0
   44.7570   90.2750   50.0480 O   0  0  0  0  0  0  0  0  0  0  0  0
   45.6230   91.9800   49.1010 O   0  0  0  0  0  0  0  0  0  0  0  0
   45.7960   90.8530   49.6220 C   0  0  0  0  0  0  0  0  0  0  0  0
   47.1410   89.7690   51.4370 C   0  0  0  0  0  0  0  0  0  0  0  0
   48.2820   91.2340   52.9600 O   0  0  0  0  0  0  0  0  0  0  0  0
   48.5030   90.0270   52.1290 C   0  0  0  0  0  0  0  0  0  0  0  0
  2  1  1  0
  2  6  1  0
  4  5  2  0
  5  3  1  0
  5  2  1  0
  6  8  1  0
  8  7  1  0
M  END
$$$$

     RDKit          3D

 21 21  0  0  0  0  0  0  0  0999 V2000
   49.2390   89.4530   51.4320 C   0  0  0  0  0  0  0  0  0  0  0  0
   45.1140   90.9370   53.5950 C   0  0  0  0  0  0  0  0  0  0  0  0
   44.8660   92.5430   52.0880 N   0  0  0  0  0  0  0  0  0  0  0  0
   50.7420   89.4100   51.4250 C   0  0  0  0  0  0  0  0  0  0  0  0
   43.9300   93.2210   51.5150 C   0  0  0  0  0  0  0  0  0  0  0  0
   52.7520   88.7490   50.2620 C   0  0  0  0  0  0  0  0  0  0  0  0
   44.4860   90.2450   54.7030 C   0  0  0  0  0  0  0  0  0  0  0  0
   51.1160   90.2600   53.6760 O   0  0  0  0  0  0  0  0  0  0  0  0
   46.7380   88.6700   52.6080 O   0  0  0  0  0  0  0  0  0  0  0  0
   51.5510   89.7620   52.5040 C   0  0  0  0  0  0  0  0  0  0  0  0
   53.5570   89.4000   51.2550 C   0  0  0  0  0  0  0  0  0  0  0  0
   44.2410   93.4480   49.9220 C   0  0  0  0  0  0  0  0  0  0  0  0
   54.8490   89.4540   51.0600 F   0  0  0  0  0  0  0  0  0  0  0  0
   44.7350   92.3010   53.3680 N   0  0  0  0  0  0  0  0  0  0  0  0
   46.9440   89.8360   52.5160 C   0  0  0  0  0  0  0  0  0  0  0  0
   52.9610   89.7840   52.4200 C   0  0  0  0  0  0  0  0  0  0  0  0
   43.1880   94.0560   51.8630 O   0  0  0  0  0  0  0  0  0  0  0  0
   48.4300   90.2930   52.1110 C   0  0  0  0  0  0  0  0  0  0  0  0
   51.3900   88.8220   50.3050 C   0  0  0  0  0  0  0  0  0  0  0  0
   45.9610   90.6640   52.6920 N   0  0  0  0  0  0  0  0  0  0  0  0
   48.5640   88.4820   50.4500 C   0  0  0  0  0  0  0  0  0  0  0  0
  1 21  1  0
  1 18  1  0
  2  7  1  0
  3 14  1  0
  4  1  1  0
  4 10  1  0
  5 17  2  0
  5  3  1  0
  6 19  1  0
  6 11  2  0
 10  8  1  0
 11 16  1  0
 12  5  1  0
 13 11  1  0
 14  2  1  0
 15  9  2  0
 15 20  1  0
 16 10  2  0
 18 15  1  0
 19  4  2  0
 20  2  1  0
M  END
$$$$

     RDKit          3D

 12 12  0  0  0  0  0  0  0  0999 V2000
   47.0020   89.5100   49.9550 C   0  0  0  0  0  0  0  0  0  0  0  0
   47.9210   90.4590   50.9940 C   0  0  0  0  0  0  0  0  0  0  0  0
   48.7720   90.0310   53.0390 O   0  0  0  0  0  0  0  0  0  0  0  0
   46.2390   88.2670   49.6120 O   0  0  0  0  0  0  0  0  0  0  0  0
   48.7360   91.3130   50.5100 O   0  0  0  0  0  0  0  0  0  0  0  0
   45.4440   89.4560   51.7600 C   0  0  0  0  0  0  0  0  0  0  0  0
   45.3890   91.3940   49.9770 O   0  0  0  0  0  0  0  0  0  0  0  0
   44.4020   88.7610   52.1120 O   0  0  0  0  0  0  0  0  0  0  0  0
   46.6240   89.1800   52.4840 O   0  0  0  0  0  0  0  0  0  0  0  0
   45.7670   90.3550   50.6160 C   0  0  0  0  0  0  0  0  0  0  0  0
   47.5860   90.3330   52.4190 C   0  0  0  0  0  0  0  0  0  0  0  0
   48.4290   89.0900   49.4960 C   0  0  0  0  0  0  0  0  0  0  0  0
  1 12  1  0
  1 10  1  0
  1  2  1  0
  2 11  1  0
  4  1  1  0
  5  2  2  0
  6  8  2  0
  6  9  1  0
  7 10  2  0
 10  6  1  0
 11  9  1  0
 11  3  1  0
M  END
$$$$

     RDKit          3D

 10 12  0  0  0  0  0  0  0  0999 V2000
   44.7330   90.0300   48.4520 N   0  0  0  0  0  0  0  0  0  0  0  0
   45.5710   90.1150   50.4050 C   0  0  0  0  0  0  0  0  0  0  0  0
   45.8440   90.9200   51.6710 C   0  0  0  0  0  0  0  0  0  0  0  0
   46.8370   90.1420   53.1130 C   0  0  0  0  0  0  0  0  0  0  0  0
   49.1710   90.3230   53.0590 O   0  0  0  0  0  0  0  0  0  0  0  0
   45.4540   89.8320   51.6950 C   0  0  0  0  0  0  0  0  0  0  0  0
   45.0110   89.9080   49.4630 C   0  0  0  0  0  0  0  0  0  0  0  0
   48.2440   90.7140   51.8210 C   0  0  0  0  0  0  0  0  0  0  0  0
   45.7450   90.6760   52.8930 C   0  0  0  0  0  0  0  0  0  0  0  0
   47.3820   90.0160   52.2450 C   0  0  0  0  0  0  0  0  0  0  0  0
  1  7  3  0
  2  7  1  0
  2  3  1  0
  2  6  1  0
  3  6  1  0
  3 10  1  0
  3  9  1  0
  6  9  1  0
  8 10  1  0
  8  5  1  0
  9  4  1  0
 10  4  1  0
M  END
$$$$

     RDKit          3D

 23 25  0  0  0  0  0  0  0  0999 V2000
   42.9680   90.5880   54.3030 C   0  0  0  0  0  0  0  0  0  0  0  0
   45.2380   88.8260   49.9610 C   0  0  0  0  0  0  0  0  0  0  0  0
   50.7980   88.4760   50.4540 C   0  0  0  0  0  0  0  0  0  0  0  0
   44.2690   89.5350   52.4930 O   0  0  0  0  0  0  0  0  0  0  0  0
   47.2050   88.7780   54.4960 O   0  0  0  0  0  0  0  0  0  0  0  0
   45.0160   89.6680   48.8980 N   0  0  0  0  0  0  0  0  0  0  0  0
   45.0430   89.8040   55.8840 C   0  0  0  0  0  0  0  0  0  0  0  0
   46.5680   88.9350   50.1550 O   0  0  0  0  0  0  0  0  0  0  0  0
   49.3670   88.5870   50.3800 C   0  0  0  0  0  0  0  0  0  0  0  0
   48.7040   89.4590   51.2820 C   0  0  0  0  0  0  0  0  0  0  0  0
   45.1170   89.6650   54.5260 C   0  0  0  0  0  0  0  0  0  0  0  0
   46.0420   87.6920   52.4840 O   0  0  0  0  0  0  0  0  0  0  0  0
   44.0310   89.9170   53.7770 C   0  0  0  0  0  0  0  0  0  0  0  0
   51.5360   89.1630   51.3610 C   0  0  0  0  0  0  0  0  0  0  0  0
   42.9510   90.8280   55.7000 C   0  0  0  0  0  0  0  0  0  0  0  0
   46.1660   89.4330   53.7120 C   0  0  0  0  0  0  0  0  0  0  0  0
   54.1300   88.1100   51.7870 N   0  0  0  0  0  0  0  0  0  0  0  0
   53.2740   89.5810   51.2760 S   0  0  0  0  0  0  0  0  0  0  0  0
   45.6800   89.0720   52.3860 C   0  0  0  0  0  0  0  0  0  0  0  0
   43.9730   90.4120   56.5050 C   0  0  0  0  0  0  0  0  0  0  0  0
   50.7980   89.8480   52.3570 C   0  0  0  0  0  0  0  0  0  0  0  0
   49.4650   90.0000   52.2330 C   0  0  0  0  0  0  0  0  0  0  0  0
   47.1840   89.5920   51.2680 C   0  0  0  0  0  0  0  0  0  0  0  0
  1 15  1  0
  2  8  1  0
  3 14  1  0
  4 13  1  0
  6  2  1  0
  7 20  1  0
  9  3  2  0
  9 10  1  0
 10 22  2  0
 11  7  2  0
 13  1  2  0
 13 11  1  0
 14 21  2  0
 15 20  2  0
 16  5  1  0
 16 11  1  0
 18 14  1  0
 18 17  1  0
 19 12  1  0
 19  4  1  0
 19 16  1  0
 22 21  1  0
 23  8  1  0
 23 10  1  0
 23 19  1  0
M  END
$$$$

     RDKit          3D

  9 10  0  0  0  0  0  0  0  0999 V2000
   45.4590   87.9910   53.0950 O   0  0  0  0  0  0  0  0  0  0  0  0
   45.7450   88.2300   49.8670 C   0  0  0  0  0  0  0  0  0  0  0  0
   45.0780   89.1710   52.3790 C   0  0  0  0  0  0  0  0  0  0  0  0
   47.6580   90.2000   49.7480 S   0  0  0  0  0  0  0  0  0  0  0  0
   46.8300   88.8750   48.9250 C   0  0  0  0  0  0  0  0  0  0  0  0
   47.8280   89.3510   51.3780 S   0  0  0  0  0  0  0  0  0  0  0  0
   45.0870   89.0750   50.8490 C   0  0  0  0  0  0  0  0  0  0  0  0
   43.8930   89.8120   52.7230 O   0  0  0  0  0  0  0  0  0  0  0  0
   46.1280   89.7360   51.5620 C   0  0  0  0  0  0  0  0  0  0  0  0
  3  8  1  0
  3  1  1  0
  4  6  1  0
  5  4  1  0
  5  2  1  0
  7  2  1  0
  7  9  1  0
  7  3  1  0
  9  6  1  0
  9  3  1  0
M  END
$$$$

     RDKit          3D

  8  7  0  0  0  0  0  0  0  0999 V2000
   44.5360   89.1790   50.2050 O   0  0  0  0  0  0  0  0  0  0  0  0
   47.6690   89.4320   50.2510 C   0  0  0  0  0  0  0  0  0  0  0  0
   45.3400   90.8470   51.3330 O   0  0  0  0  0  0  0  0  0  0  0  0
   48.8430   88.8630   49.9020 O   0  0  0  0  0  0  0  0  0  0  0  0
   46.1490   90.5660   49.1740 C   0  0  0  0  0  0  0  0  0  0  0  0
   48.1500   90.7340   48.5960 O   0  0  0  0  0  0  0  0  0  0  0  0
   47.1420   90.0070   48.9370 C   0  0  0  0  0  0  0  0  0  0  0  0
   45.3410   90.0480   50.4500 C   0  0  0  0  0  0  0  0  0  0  0  0
  1  8  2  0
  4  2  1  0
  5  8  1  0
  7  6  1  0
  7  5  1  0
  7  2  1  0
  8  3  1  0
M  END
$$$$

     RDKit          3D

 31 33  0  0  0  0  0  0  0  0999 V2000
   45.6290   90.0980   50.7480 C   0  0  0  0  0  0  0  0  0  0  0  0
   54.6320   86.0030   52.9310 O   0  0  0  0  0  0  0  0  0  0  0  0
   54.3310   88.2100   52.0720 C   0  0  0  0  0  0  0  0  0  0  0  0
   51.1770   89.8530   52.5120 C   0  0  0  0  0  0  0  0  0  0  0  0
   52.0640   88.9500   51.7660 C   0  0  0  0  0  0  0  0  0  0  0  0
   46.7570   87.9290   51.8140 C   0  0  0  0  0  0  0  0  0  0  0  0
   46.2800   90.5900   49.6230 O   0  0  0  0  0  0  0  0  0  0  0  0
   43.3620   90.7450   55.1380 C   0  0  0  0  0  0  0  0  0  0  0  0
   49.8110   89.9090   50.3550 C   0  0  0  0  0  0  0  0  0  0  0  0
   48.4150   90.2590   50.1340 O   0  0  0  0  0  0  0  0  0  0  0  0
   45.7340   88.6080   50.7680 C   0  0  0  0  0  0  0  0  0  0  0  0
   44.3820   88.2640   51.0080 O   0  0  0  0  0  0  0  0  0  0  0  0
   50.9450   90.5940   49.6530 C   0  0  0  0  0  0  0  0  0  0  0  0
   44.6110   90.5670   53.0300 C   0  0  0  0  0  0  0  0  0  0  0  0
   45.3920   88.4050   48.3500 O   0  0  0  0  0  0  0  0  0  0  0  0
   43.3430   91.3470   52.8640 O   0  0  0  0  0  0  0  0  0  0  0  0
   49.8090   89.8160   51.9030 C   0  0  0  0  0  0  0  0  0  0  0  0
   45.2900   90.7700   51.8730 O   0  0  0  0  0  0  0  0  0  0  0  0
   42.8490   90.8360   56.4450 O   0  0  0  0  0  0  0  0  0  0  0  0
   52.3900   89.9100   49.4080 C   0  0  0  0  0  0  0  0  0  0  0  0
   55.6300   87.6720   53.8780 O   0  0  0  0  0  0  0  0  0  0  0  0
   52.8910   89.0920   50.6050 N   0  0  0  0  0  0  0  0  0  0  0  0
   42.2300   92.5790   54.4120 O   0  0  0  0  0  0  0  0  0  0  0  0
   53.9990   88.1430   50.5760 C   0  0  0  0  0  0  0  0  0  0  0  0
   55.0110   87.1820   52.8800 C   0  0  0  0  0  0  0  0  0  0  0  0
   46.1650   87.7640   53.0610 O   0  0  0  0  0  0  0  0  0  0  0  0
   46.3040   88.2720   49.4790 C   0  0  0  0  0  0  0  0  0  0  0  0
   47.2830   89.4690   49.5800 C   0  0  0  0  0  0  0  0  0  0  0  0
   45.4420   91.1130   54.0670 C   0  0  0  0  0  0  0  0  0  0  0  0
   44.5960   91.5890   55.1420 C   0  0  0  0  0  0  0  0  0  0  0  0
   42.5560   91.3070   54.0320 C   0  0  0  0  0  0  0  0  0  0  0  0
  1 11  1  0
  1 18  1  0
  3 25  1  0
  5  4  1  0
  6 26  1  0
  7  1  1  0
  8 30  1  0
  8 19  1  0
  9 10  1  0
  9 17  1  0
 11 12  1  0
 11  6  1  0
 13  9  1  0
 14 18  1  0
 14 29  1  0
 16 14  1  0
 16 31  1  0
 17  4  1  0
 20 13  1  0
 20 22  1  0
 22  5  1  0
 24 22  1  0
 24  3  1  0
 25  2  2  0
 25 21  1  0
 27 15  1  0
 27 28  1  0
 27 11  1  0
 28  7  1  0
 28 10  1  0
 29 30  1  0
 31 23  1  0
 31  8  1  0
M  END
$$$$

     RDKit          3D

 22 22  0  0  0  0  0  0  0  0999 V2000
   50.3590   91.3700   48.7450 C   0  0  0  0  0  0  0  0  0  0  0  0
   50.4100   92.1390   49.8840 C   0  0  0  0  0  0  0  0  0  0  0  0
   52.1830   91.2220   50.1130 O   0  0  0  0  0  0  0  0  0  0  0  0
   45.0370   89.0160   51.8700 C   0  0  0  0  0  0  0  0  0  0  0  0
   45.3510   88.4740   54.2410 O   0  0  0  0  0  0  0  0  0  0  0  0
   51.5710   90.5120   51.2880 C   0  0  0  0  0  0  0  0  0  0  0  0
   47.0150   90.5890   51.5490 C   0  0  0  0  0  0  0  0  0  0  0  0
   47.9350   90.3210   50.1580 C   0  0  0  0  0  0  0  0  0  0  0  0
   52.7330   93.3560   51.0770 O   0  0  0  0  0  0  0  0  0  0  0  0
   46.0800   89.8090   55.5950 P   0  0  0  0  0  0  0  0  0  0  0  0
   46.2780   89.3690   51.5680 O   0  0  0  0  0  0  0  0  0  0  0  0
   47.4580   89.6600   55.3180 O   0  0  0  0  0  0  0  0  0  0  0  0
   50.0910   90.6100   51.3990 C   0  0  0  0  0  0  0  0  0  0  0  0
   51.2820   92.1100   48.7240 O   0  0  0  0  0  0  0  0  0  0  0  0
   43.6990   91.0430   52.5760 O   0  0  0  0  0  0  0  0  0  0  0  0
   54.3850   92.3890   49.8110 O   0  0  0  0  0  0  0  0  0  0  0  0
   45.1790   89.8070   54.2530 C   0  0  0  0  0  0  0  0  0  0  0  0
   45.3980   88.9560   56.6540 O   0  0  0  0  0  0  0  0  0  0  0  0
   44.4890   90.2180   52.9320 C   0  0  0  0  0  0  0  0  0  0  0  0
   53.3860   92.2790   50.5220 P   0  0  0  0  0  0  0  0  0  0  0  0
   49.0930   91.2250   48.2130 O   0  0  0  0  0  0  0  0  0  0  0  0
   49.0920   91.2470   50.4590 C   0  0  0  0  0  0  0  0  0  0  0  0
  1 21  1  0
  1  2  1  0
  2 22  1  0
  3 20  1  0
  3  6  1  0
  4 19  1  0
  6 13  2  3
  7 11  1  0
  8  7  1  0
 10 18  1  0
 11  4  1  0
 12 10  1  0
 14  1  1  0
 14  2  1  0
 15 19  2  0
 16 20  2  0
 17  5  1  0
 17 10  1  0
 19 17  1  0
 20  9  2  0
 22  8  1  0
 22 13  1  0
M  END
$$$$

     RDKit          3D

 16 17  0  0  0  0  0  0  0  0999 V2000
   45.7350   88.0880   51.1620 S   0  0  0  0  0  0  0  0  0  0  0  0
   53.7570   91.3700   50.5890 C   0  0  0  0  0  0  0  0  0  0  0  0
   51.8830   89.7340   51.1250 N   0  0  0  0  0  0  0  0  0  0  0  0
   49.0780   89.8270   51.8280 C   0  0  0  0  0  0  0  0  0  0  0  0
   45.6280   87.3060   49.8880 O   0  0  0  0  0  0  0  0  0  0  0  0
   51.0800   88.6840   50.6370 C   0  0  0  0  0  0  0  0  0  0  0  0
   53.2730   89.9380   50.7560 C   0  0  0  0  0  0  0  0  0  0  0  0
   50.0380   90.8060   52.4340 C   0  0  0  0  0  0  0  0  0  0  0  0
   47.6930   89.7310   51.9730 N   0  0  0  0  0  0  0  0  0  0  0  0
   44.5420   88.8030   50.9290 O   0  0  0  0  0  0  0  0  0  0  0  0
   48.3510   88.3340   50.4120 S   0  0  0  0  0  0  0  0  0  0  0  0
   54.0970   88.7960   50.1880 C   0  0  0  0  0  0  0  0  0  0  0  0
   47.3080   88.8750   51.1550 C   0  0  0  0  0  0  0  0  0  0  0  0
   45.3300   87.0740   52.1740 O   0  0  0  0  0  0  0  0  0  0  0  0
   49.5460   89.0100   50.9480 C   0  0  0  0  0  0  0  0  0  0  0  0
   51.0140   90.8110   51.2050 C   0  0  0  0  0  0  0  0  0  0  0  0
  1 14  1  0
  2  7  1  0
  3 16  1  0
  4  9  1  0
  4  8  1  0
  5  1  1  0
  6 15  1  0
  6  3  1  0
  7  3  1  0
 10  1  1  0
 11 15  1  0
 11 13  1  0
 12  7  1  0
 13  1  1  0
 13  9  2  0
 15  4  2  0
 16  8  1  0
M  END
$$$$

     RDKit          3D

 17 17  0  0  0  0  0  0  0  0999 V2000
   45.1410   91.6900   51.7700 O   0  0  0  0  0  0  0  0  0  0  0  0
   46.8610   89.5550   51.8690 C   0  0  0  0  0  0  0  0  0  0  0  0
   47.5030   90.3780   51.2310 O   0  0  0  0  0  0  0  0  0  0  0  0
   52.2560   90.2510   52.4770 C   0  0  0  0  0  0  0  0  0  0  0  0
   48.8780   91.2230   49.5650 C   0  0  0  0  0  0  0  0  0  0  0  0
   44.8740   89.7890   55.1720 C   0  0  0  0  0  0  0  0  0  0  0  0
   43.7890   91.1430   53.5670 C   0  0  0  0  0  0  0  0  0  0  0  0
   43.8120   90.6380   54.8890 C   0  0  0  0  0  0  0  0  0  0  0  0
   51.2030   90.2850   51.3960 O   0  0  0  0  0  0  0  0  0  0  0  0
   45.8990   89.4730   54.2690 C   0  0  0  0  0  0  0  0  0  0  0  0
   48.7780   90.1030   50.5560 C   0  0  0  0  0  0  0  0  0  0  0  0
   49.5910   89.5580   52.6980 O   0  0  0  0  0  0  0  0  0  0  0  0
   49.9500   89.9080   51.7130 C   0  0  0  0  0  0  0  0  0  0  0  0
   45.8710   89.9010   52.9340 C   0  0  0  0  0  0  0  0  0  0  0  0
   47.0410   88.4410   51.4250 O   0  0  0  0  0  0  0  0  0  0  0  0
   44.8630   90.8430   52.6390 C   0  0  0  0  0  0  0  0  0  0  0  0
   42.9100   91.0020   55.7950 O   0  0  0  0  0  0  0  0  0  0  0  0
  1 16  2  0
  2 14  1  0
  3  2  1  0
  7  8  1  0
  8  6  2  0
  8 17  1  0
  9 13  1  0
  9  4  1  0
 10  6  1  0
 11  5  1  0
 11  3  1  0
 11 13  1  0
 13 12  2  0
 14 10  2  0
 15  2  2  0
 16 14  1  0
 16  7  1  0
M  END
$$$$

     RDKit          3D

 15 14  0  0  0  0  0  0  0  0999 V2000
   44.6650   89.1530   49.9160 O   0  0  0  0  0  0  0  0  0  0  0  0
   47.5360   90.9480   51.1160 C   0  0  0  0  0  0  0  0  0  0  0  0
   47.9730   93.0920   49.7860 C   0  0  0  0  0  0  0  0  0  0  0  0
   45.7640   89.6250   50.6340 C   0  0  0  0  0  0  0  0  0  0  0  0
   46.0380   90.8780   53.4000 C   0  0  0  0  0  0  0  0  0  0  0  0
   47.2690   89.5080   51.3020 C   0  0  0  0  0  0  0  0  0  0  0  0
   46.5650   91.5070   52.0550 C   0  0  0  0  0  0  0  0  0  0  0  0
   50.4170   90.7150   49.6230 O   0  0  0  0  0  0  0  0  0  0  0  0
   47.2020   89.5090   51.8880 C   0  0  0  0  0  0  0  0  0  0  0  0
   44.9790   88.7040   48.5320 C   0  0  0  0  0  0  0  0  0  0  0  0
   48.9910   91.3050   49.3610 C   0  0  0  0  0  0  0  0  0  0  0  0
   48.0960   91.7480   50.1300 C   0  0  0  0  0  0  0  0  0  0  0  0
   45.0140   90.0070   54.0600 C   0  0  0  0  0  0  0  0  0  0  0  0
   45.8960   89.6750   51.7800 C   0  0  0  0  0  0  0  0  0  0  0  0
   43.4920   90.6450   53.8780 O   0  0  0  0  0  0  0  0  0  0  0  0
  1  4  1  0
  2  6  1  0
  2  7  1  0
  4 14  1  0
  5 13  1  0
  6  9  1  0
  7  5  1  0
 10  1  1  0
 11  8  1  0
 11 12  1  0
 12  3  1  0
 12  2  1  0
 14  9  1  0
 15 13  1  0
M  END
$$$$

     RDKit          3D

 20 21  0  0  0  0  0  0  0  0999 V2000
   52.1590   89.6880   50.8140 N   0  0  0  0  0  0  0  0  0  0  0  0
   47.7310   89.9750   50.2270 S   0  0  0  0  0  0  0  0  0  0  0  0
   46.0540   88.9690   52.1330 C   0  0  0  0  0  0  0  0  0  0  0  0
   45.8900   91.2010   51.5110 C   0  0  0  0  0  0  0  0  0  0  0  0
   45.0530   89.2500   53.1420 C   0  0  0  0  0  0  0  0  0  0  0  0
   49.9540   88.8330   51.0670 C   0  0  0  0  0  0  0  0  0  0  0  0
   55.9760   90.3680   51.4810 O   0  0  0  0  0  0  0  0  0  0  0  0
   49.2800   90.1460   50.7900 C   0  0  0  0  0  0  0  0  0  0  0  0
   45.1100   88.6190   54.3560 F   0  0  0  0  0  0  0  0  0  0  0  0
   44.2670   90.3230   53.0040 C   0  0  0  0  0  0  0  0  0  0  0  0
   46.5570   90.0690   51.5050 C   0  0  0  0  0  0  0  0  0  0  0  0
   53.5610   89.5070   50.8460 C   0  0  0  0  0  0  0  0  0  0  0  0
   51.2320   89.3040   51.8200 C   0  0  0  0  0  0  0  0  0  0  0  0
   54.0920   89.0610   52.1340 C   0  0  0  0  0  0  0  0  0  0  0  0
   43.0320   90.6010   53.7840 C   0  0  0  0  0  0  0  0  0  0  0  0
   50.2610   91.2220   50.2380 C   0  0  0  0  0  0  0  0  0  0  0  0
   44.6560   91.3430   52.1950 C   0  0  0  0  0  0  0  0  0  0  0  0
   51.6070   90.6550   49.9010 C   0  0  0  0  0  0  0  0  0  0  0  0
   55.5840   89.1400   51.9230 C   0  0  0  0  0  0  0  0  0  0  0  0
   43.8610   92.5040   52.3890 O   0  0  0  0  0  0  0  0  0  0  0  0
  1 12  1  0
  1 13  1  0
  2  8  1  0
  2 11  1  0
  3  5  1  0
  4 17  1  0
  5  9  1  0
  6 13  1  0
  7 19  1  0
  8  6  1  0
 10  5  1  0
 10 15  1  0
 11  4  2  0
 11  3  1  0
 12 14  1  0
 16  8  1  0
 17 20  1  0
 17 10  2  0
 18 16  1  0
 18  1  1  0
 19 14  1  0
M  END
$$$$

     RDKit          3D

  7  6  0  0  0  0  0  0  0  0999 V2000
   47.2330   88.4650   51.4520 C   0  0  0  0  0  0  0  0  0  0  0  0
   47.0840   90.8490   50.3460 C   0  0  0  0  0  0  0  0  0  0  0  0
   46.3490   89.9170   49.2790 O   0  0  0  0  0  0  0  0  0  0  0  0
   48.8360   91.5040   48.9180 O   0  0  0  0  0  0  0  0  0  0  0  0
   47.8810   91.8540   49.9330 C   0  0  0  0  0  0  0  0  0  0  0  0
   47.7260   89.8910   51.2380 N   0  0  0  0  0  0  0  0  0  0  0  0
   49.1640   89.8640   50.8340 C   0  0  0  0  0  0  0  0  0  0  0  0
  2  3  1  0
  2  6  1  0
  4  5  1  0
  5  2  1  0
  6  1  1  0
  7  6  1  0
M  END
$$$$

     RDKit          3D

 12 12  0  0  0  0  0  0  0  0999 V2000
   49.1250   89.4580   50.9000 C   0  0  0  0  0  0  0  0  0  0  0  0
   44.9550   90.3390   49.5860 O   0  0  0  0  0  0  0  0  0  0  0  0
   48.9540   89.8710   52.2740 N   0  0  0  0  0  0  0  0  0  0  0  0
   46.9500   89.3620   51.9910 O   0  0  0  0  0  0  0  0  0  0  0  0
   45.8300   88.9270   51.1790 C   0  0  0  0  0  0  0  0  0  0  0  0
   44.0740   89.7430   52.3820 O   0  0  0  0  0  0  0  0  0  0  0  0
   49.6820   90.3120   50.1560 O   0  0  0  0  0  0  0  0  0  0  0  0
   47.8270   90.6110   49.0380 O   0  0  0  0  0  0  0  0  0  0  0  0
   46.1900   89.6140   49.9660 C   0  0  0  0  0  0  0  0  0  0  0  0
   44.7620   89.2150   51.7840 C   0  0  0  0  0  0  0  0  0  0  0  0
   47.3660   89.3810   49.2000 C   0  0  0  0  0  0  0  0  0  0  0  0
   48.0790   88.9760   51.4020 C   0  0  0  0  0  0  0  0  0  0  0  0
  1  7  1  0
  1 12  1  0
  1  3  1  0
  5 10  1  0
  5  4  1  0
  8 11  1  0
  9  2  1  0
  9  5  1  0
 10  6  1  0
 11  9  1  0
 12  4  1  0
 12  3  1  0
M  END
$$$$

     RDKit          3D

 17 20  0  0  0  0  0  0  0  0999 V2000
   45.4620   89.2280   52.1630 C   0  0  0  0  0  0  0  0  0  0  0  0
   45.0550   87.9190   49.2010 C   0  0  0  0  0  0  0  0  0  0  0  0
   48.0900   89.1240   51.6720 O   0  0  0  0  0  0  0  0  0  0  0  0
   49.2970   88.7360   50.6980 C   0  0  0  0  0  0  0  0  0  0  0  0
   42.9810   91.1320   53.7510 C   0  0  0  0  0  0  0  0  0  0  0  0
   44.5160   89.3910   52.7860 C   0  0  0  0  0  0  0  0  0  0  0  0
   50.0910   89.9240   50.4270 O   0  0  0  0  0  0  0  0  0  0  0  0
   42.2160   91.2210   54.1410 C   0  0  0  0  0  0  0  0  0  0  0  0
   43.9470   90.6010   53.2330 C   0  0  0  0  0  0  0  0  0  0  0  0
   45.7850   87.7460   50.4370 O   0  0  0  0  0  0  0  0  0  0  0  0
   48.9780   90.7850   50.1540 C   0  0  0  0  0  0  0  0  0  0  0  0
   47.7330   90.1480   49.7250 C   0  0  0  0  0  0  0  0  0  0  0  0
   45.1120   88.1680   52.8010 O   0  0  0  0  0  0  0  0  0  0  0  0
   45.9440   88.9530   50.7920 C   0  0  0  0  0  0  0  0  0  0  0  0
   42.3060   90.5260   54.0220 C   0  0  0  0  0  0  0  0  0  0  0  0
   43.9600   90.3140   53.9570 C   0  0  0  0  0  0  0  0  0  0  0  0
   47.6050   89.2450   50.8130 C   0  0  0  0  0  0  0  0  0  0  0  0
  1 14  1  0
  1  6  1  0
  1 13  1  0
  2 10  1  0
  4  3  1  0
  5 15  1  0
  5  8  1  0
  6 13  1  0
  6  9  1  0
  7  4  1  0
  9  5  1  0
  9 16  1  0
 11  7  1  0
 12 11  1  0
 12 17  1  0
 14 10  1  0
 15 16  1  0
 15  8  1  0
 17 14  1  0
 17  3  1  0
M  END
$$$$

     RDKit          3D

 38 41  0  0  0  0  0  0  0  0999 V2000
   46.9360   87.7370   59.1360 C   0  0  0  0  0  0  0  0  0  0  0  0
   49.5660   90.8000   51.8570 O   0  0  0  0  0  0  0  0  0  0  0  0
   51.6120   89.4420   50.9640 C   0  0  0  0  0  0  0  0  0  0  0  0
   47.7990   89.0890   51.2470 N   0  0  0  0  0  0  0  0  0  0  0  0
   47.3770   83.1710   51.9600 C   0  0  0  0  0  0  0  0  0  0  0  0
   48.2700   86.4860   50.8380 O   0  0  0  0  0  0  0  0  0  0  0  0
   44.9870   86.8230   57.8410 O   0  0  0  0  0  0  0  0  0  0  0  0
   46.3140   83.6060   52.6810 C   0  0  0  0  0  0  0  0  0  0  0  0
   46.7970   89.1160   54.7480 O   0  0  0  0  0  0  0  0  0  0  0  0
   45.0380   87.5330   51.8740 O   0  0  0  0  0  0  0  0  0  0  0  0
   45.2130   82.7180   53.2440 C   0  0  0  0  0  0  0  0  0  0  0  0
   45.9980   90.9940   56.0530 C   0  0  0  0  0  0  0  0  0  0  0  0
   48.9400   90.7440   49.7370 C   0  0  0  0  0  0  0  0  0  0  0  0
   48.2290   89.6280   56.3080 N   0  0  0  0  0  0  0  0  0  0  0  0
   47.0090   85.7990   51.3850 S   0  0  0  0  0  0  0  0  0  0  0  0
   46.9560   88.5190   52.1940 C   0  0  0  0  0  0  0  0  0  0  0  0
   48.0670   84.3130   51.4920 C   0  0  0  0  0  0  0  0  0  0  0  0
   46.0620   84.9140   52.5610 C   0  0  0  0  0  0  0  0  0  0  0  0
   44.8760   91.0680   55.4360 N   0  0  0  0  0  0  0  0  0  0  0  0
   54.4220   91.1080   52.0060 C   0  0  0  0  0  0  0  0  0  0  0  0
   50.8480   90.8200   51.0320 C   0  0  0  0  0  0  0  0  0  0  0  0
   47.2150   90.2750   55.4760 C   0  0  0  0  0  0  0  0  0  0  0  0
   48.6480   90.3440   51.1520 C   0  0  0  0  0  0  0  0  0  0  0  0
   52.5680   89.1450   52.1450 N   0  0  0  0  0  0  0  0  0  0  0  0
   46.4720   87.4410   51.4510 C   0  0  0  0  0  0  0  0  0  0  0  0
   45.8620   89.4520   52.6360 C   0  0  0  0  0  0  0  0  0  0  0  0
   49.9730   92.7530   49.9390 O   0  0  0  0  0  0  0  0  0  0  0  0
   53.7450   89.8930   52.3860 C   0  0  0  0  0  0  0  0  0  0  0  0
   45.3030   89.0340   58.3270 O   0  0  0  0  0  0  0  0  0  0  0  0
   45.5880   89.2540   54.1020 C   0  0  0  0  0  0  0  0  0  0  0  0
   44.5590   90.3110   54.4830 C   0  0  0  0  0  0  0  0  0  0  0  0
   50.4980   88.3690   50.9110 C   0  0  0  0  0  0  0  0  0  0  0  0
   48.1580   88.1400   58.2550 C   0  0  0  0  0  0  0  0  0  0  0  0
   43.5420   90.4280   53.5900 O   0  0  0  0  0  0  0  0  0  0  0  0
   45.5880   87.8910   58.4890 C   0  0  0  0  0  0  0  0  0  0  0  0
   50.2890   91.3980   49.8970 C   0  0  0  0  0  0  0  0  0  0  0  0
   48.1480   89.6040   57.7310 C   0  0  0  0  0  0  0  0  0  0  0  0
   44.6480   88.9410   51.8600 C   0  0  0  0  0  0  0  0  0  0  0  0
  3 32  1  0
  3 24  1  0
  5  8  1  0
  7 35  2  0
  8 11  1  0
  9 22  1  0
 13 36  1  0
 13 23  1  0
 14 37  1  0
 15  6  1  0
 15 25  1  0
 15 17  1  0
 15 18  1  0
 16  4  1  0
 16 26  1  0
 17  5  1  0
 18  8  1  0
 19 12  1  0
 20 28  1  0
 21  3  1  0
 21  2  1  0
 22 12  1  0
 22 14  1  0
 23  4  1  0
 23  2  1  0
 24 28  2  3
 25 10  1  0
 25 16  1  0
 26 38  1  0
 26 30  1  0
 29 35  1  0
 30 31  1  0
 30  9  1  0
 31 19  1  0
 33  1  1  0
 34 31  2  0
 35  1  1  0
 36 27  1  0
 36 21  1  0
 37 33  1  0
 38 10  1  0
M  END
$$$$

     RDKit          3D

 18 23  0  0  0  0  0  0  0  0999 V2000
   47.5760   90.5610   52.5650 C   0  0  0  0  0  0  0  0  0  0  0  0
   46.2000   88.8170   51.4010 C   0  0  0  0  0  0  0  0  0  0  0  0
   47.9310   90.4090   50.0570 C   0  0  0  0  0  0  0  0  0  0  0  0
   45.4100   91.1930   51.2720 C   0  0  0  0  0  0  0  0  0  0  0  0
   45.9200   89.3890   53.8300 C   0  0  0  0  0  0  0  0  0  0  0  0
   45.5400   90.0910   51.5630 C   0  0  0  0  0  0  0  0  0  0  0  0
   48.4060   89.0340   50.2990 C   0  0  0  0  0  0  0  0  0  0  0  0
   44.9480   88.8100   51.9350 C   0  0  0  0  0  0  0  0  0  0  0  0
   45.9320   88.2700   52.8720 C   0  0  0  0  0  0  0  0  0  0  0  0
   46.6130   89.1660   54.9900 O   0  0  0  0  0  0  0  0  0  0  0  0
   49.5340   93.1500   50.3700 N   0  0  0  0  0  0  0  0  0  0  0  0
   46.1430   90.5810   52.7430 C   0  0  0  0  0  0  0  0  0  0  0  0
   50.9190   91.2070   51.2000 C   0  0  0  0  0  0  0  0  0  0  0  0
   49.6260   92.0250   51.1830 C   0  0  0  0  0  0  0  0  0  0  0  0
   48.3870   91.2880   51.3060 C   0  0  0  0  0  0  0  0  0  0  0  0
   45.0330   90.6730   53.6320 C   0  0  0  0  0  0  0  0  0  0  0  0
   48.4420   89.9110   53.4580 O   0  0  0  0  0  0  0  0  0  0  0  0
   47.1720   88.9650   50.2140 C   0  0  0  0  0  0  0  0  0  0  0  0
  1 12  1  0
  1 17  1  0
  2  6  1  0
  2  8  1  0
  2  9  1  0
  3 18  1  0
  3  7  1  0
  3 15  1  0
  4  6  1  0
  5 10  1  0
  6  8  1  0
  6 12  1  0
  8  9  1  0
  9  5  1  0
 11 14  1  0
 12 16  1  0
 12  5  1  0
 14 13  1  0
 14 15  1  0
 15  1  1  0
 16  5  1  0
 18  7  1  0
 18  2  1  0
M  END
$$$$

     RDKit          3D

 17 18  0  0  0  0  0  0  0  0999 V2000
   49.6950   89.4840   51.3640 C   0  0  0  0  0  0  0  0  0  0  0  0
   43.3700   90.6370   53.9640 C   0  0  0  0  0  0  0  0  0  0  0  0
   46.0480   89.3970   50.1400 C   0  0  0  0  0  0  0  0  0  0  0  0
   45.6930   90.9250   51.8830 C   0  0  0  0  0  0  0  0  0  0  0  0
   44.5420   91.6850   50.8250 N   0  0  0  0  0  0  0  0  0  0  0  0
   44.1610   92.0450   52.2030 C   0  0  0  0  0  0  0  0  0  0  0  0
   45.6370   90.4580   54.2610 C   0  0  0  0  0  0  0  0  0  0  0  0
   45.0760   89.6930   55.4160 O   0  0  0  0  0  0  0  0  0  0  0  0
   48.7470   89.1180   50.2740 C   0  0  0  0  0  0  0  0  0  0  0  0
   47.0470   89.2290   52.3010 N   0  0  0  0  0  0  0  0  0  0  0  0
   47.3440   88.8830   50.7960 C   0  0  0  0  0  0  0  0  0  0  0  0
   45.0490   88.8850   51.2680 C   0  0  0  0  0  0  0  0  0  0  0  0
   46.1450   90.1210   52.1260 C   0  0  0  0  0  0  0  0  0  0  0  0
   45.6920   92.0760   52.3990 C   0  0  0  0  0  0  0  0  0  0  0  0
   48.7930   90.2450   49.3070 O   0  0  0  0  0  0  0  0  0  0  0  0
   43.3410   91.7700   53.1010 C   0  0  0  0  0  0  0  0  0  0  0  0
   44.6960   90.4310   53.7010 C   0  0  0  0  0  0  0  0  0  0  0  0
  3 11  1  0
  3 12  1  0
  4 13  1  0
  4 14  1  0
  5  4  1  0
  5  6  1  0
  6 14  1  0
  6 16  1  0
  7  8  1  0
  9  1  1  0
 11  9  1  0
 11 10  1  0
 13 12  1  0
 13 10  1  0
 15  9  1  0
 16  2  1  0
 17  2  1  0
 17  7  1  0
M  END
$$$$
