
     RDKit          3D

 12 12  0  0  0  0  0  0  0  0999 V2000
   50.1260   91.2940   49.8590 C   0  0  0  0  0  0  0  0  0  0  0  0
   46.1790   91.0460   50.7510 C   0  0  0  0  0  0  0  0  0  0  0  0
   51.7910   89.1210   49.7450 C   0  0  0  0  0  0  0  0  0  0  0  0
   50.5130   89.0720   50.5110 C   0  0  0  0  0  0  0  0  0  0  0  0
   45.1370   91.6220   51.0070 N   0  0  0  0  0  0  0  0  0  0  0  0
   52.1210   90.2750   49.0760 C   0  0  0  0  0  0  0  0  0  0  0  0
   49.7820   90.0970   50.5240 C   0  0  0  0  0  0  0  0  0  0  0  0
   51.2180   91.3760   49.0220 C   0  0  0  0  0  0  0  0  0  0  0  0
   47.2120   90.4580   50.4620 N   0  0  0  0  0  0  0  0  0  0  0  0
   48.4610   90.2880   52.7010 O   0  0  0  0  0  0  0  0  0  0  0  0
   48.4990   90.0900   51.3630 C   0  0  0  0  0  0  0  0  0  0  0  0
   47.8070   88.9940   51.3180 O   0  0  0  0  0  0  0  0  0  0  0  0
  1  7  1  0
  2  5  3  0
  3  4  1  0
  4  7  2  0
  6  3  2  0
  7 11  1  0
  8  6  1  0
  8  1  2  0
  9  2  1  0
  9 11  1  0
 11 10  1  0
 12 11  1  0
M  END
$$$$

     RDKit          3D

  4  3  0  0  0  0  0  0  0  0999 V2000
   49.7940   90.3390   52.7180 C   0  0  0  0  0  0  0  0  0  0  0  0
   48.4970   90.0540   52.8030 O   0  0  0  0  0  0  0  0  0  0  0  0
   50.5370   90.5800   53.7330 C   0  0  0  0  0  0  0  0  0  0  0  0
   49.9630   90.3360   54.9230 O   0  0  0  0  0  0  0  0  0  0  0  0
  1  2  1  0
  1  3  1  0
  3  4  1  0
M  END
$$$$

     RDKit          3D

 12 12  0  0  0  0  0  0  0  0999 V2000
   46.6400   93.6390   50.5400 O   0  0  0  0  0  0  0  0  0  0  0  0
   47.8400   93.1190   51.1090 C   0  0  0  0  0  0  0  0  0  0  0  0
   47.3990   92.4280   52.5070 C   0  0  0  0  0  0  0  0  0  0  0  0
   51.2930   89.7030   51.5310 O   0  0  0  0  0  0  0  0  0  0  0  0
   47.4780   93.7400   53.4330 O   0  0  0  0  0  0  0  0  0  0  0  0
   49.7800   92.9390   49.7920 O   0  0  0  0  0  0  0  0  0  0  0  0
   47.7530   91.5540   49.9260 O   0  0  0  0  0  0  0  0  0  0  0  0
   50.2420   90.1290   50.9980 C   0  0  0  0  0  0  0  0  0  0  0  0
   48.1950   90.9820   52.5140 O   0  0  0  0  0  0  0  0  0  0  0  0
   50.0360   89.7950   49.6880 O   0  0  0  0  0  0  0  0  0  0  0  0
   49.4860   91.5280   51.3730 C   0  0  0  0  0  0  0  0  0  0  0  0
   48.6760   92.4150   50.6330 C   0  0  0  0  0  0  0  0  0  0  0  0
  2  1  1  0
  2  3  1  0
  3  9  1  0
  3  5  1  0
  6 12  1  0
  7 12  1  0
  8  4  1  0
 10  8  2  0
 11  8  1  0
 11  9  1  0
 12  2  1  0
 12 11  1  0
M  END
$$$$

     RDKit          3D

 17 17  0  0  0  0  0  0  0  0999 V2000
   52.1010   90.0780   51.8480 C   0  0  0  0  0  0  0  0  0  0  0  0
   54.9810   88.4880   50.7820 C   0  0  0  0  0  0  0  0  0  0  0  0
   46.3280   89.7000   51.6810 C   0  0  0  0  0  0  0  0  0  0  0  0
   48.4750   90.2880   51.8250 C   0  0  0  0  0  0  0  0  0  0  0  0
   45.9050   91.5190   50.0600 C   0  0  0  0  0  0  0  0  0  0  0  0
   45.3020   88.8850   51.6220 O   0  0  0  0  0  0  0  0  0  0  0  0
   52.9000   89.7890   50.7500 O   0  0  0  0  0  0  0  0  0  0  0  0
   48.1780   90.5990   50.7850 C   0  0  0  0  0  0  0  0  0  0  0  0
   57.0220   88.8310   52.0680 O   0  0  0  0  0  0  0  0  0  0  0  0
   55.6400   88.2730   52.2190 C   0  0  0  0  0  0  0  0  0  0  0  0
   54.2930   89.8650   50.7620 C   0  0  0  0  0  0  0  0  0  0  0  0
   47.3380   89.7920   52.6420 O   0  0  0  0  0  0  0  0  0  0  0  0
   52.9320   90.6530   52.9710 C   0  0  0  0  0  0  0  0  0  0  0  0
   49.6660   89.7060   52.0570 N   0  0  0  0  0  0  0  0  0  0  0  0
   46.7820   90.2720   50.4130 C   0  0  0  0  0  0  0  0  0  0  0  0
   54.0660   87.4990   50.4470 O   0  0  0  0  0  0  0  0  0  0  0  0
   50.7530   90.6830   51.7550 C   0  0  0  0  0  0  0  0  0  0  0  0
  1 13  1  0
  2 16  1  0
  2 10  1  0
  3 12  1  0
  4 14  1  0
  4 12  1  0
  6  3  2  0
  7 11  1  0
  7  1  1  0
  8  4  1  0
  9 10  1  0
 11  2  1  0
 15  5  1  0
 15  8  1  0
 15  3  1  0
 17  1  1  0
 17 14  1  0
M  END
$$$$

     RDKit          3D

 22 23  0  0  0  0  0  0  0  0999 V2000
   49.5840   89.8410   50.0000 C   0  0  0  0  0  0  0  0  0  0  0  0
   48.8680   90.3910   50.9850 N   0  0  0  0  0  0  0  0  0  0  0  0
   47.1180   88.9410   50.1350 C   0  0  0  0  0  0  0  0  0  0  0  0
   46.1950   89.6310   57.3150 C   0  0  0  0  0  0  0  0  0  0  0  0
   53.4880   88.6950   52.3680 C   0  0  0  0  0  0  0  0  0  0  0  0
   48.7100   91.8100   50.7870 C   0  0  0  0  0  0  0  0  0  0  0  0
   54.8500   89.3350   52.4370 C   0  0  0  0  0  0  0  0  0  0  0  0
   46.0810   90.1930   53.5880 C   0  0  0  0  0  0  0  0  0  0  0  0
   46.7930   89.4460   52.7150 C   0  0  0  0  0  0  0  0  0  0  0  0
   52.4510   89.5500   51.6330 C   0  0  0  0  0  0  0  0  0  0  0  0
   45.4780   88.4670   57.8450 O   0  0  0  0  0  0  0  0  0  0  0  0
   46.3060   89.5440   51.4330 C   0  0  0  0  0  0  0  0  0  0  0  0
   51.1010   91.7650   50.1250 C   0  0  0  0  0  0  0  0  0  0  0  0
   52.9460   90.2640   50.5360 C   0  0  0  0  0  0  0  0  0  0  0  0
   55.2910   89.4840   50.9450 C   0  0  0  0  0  0  0  0  0  0  0  0
   45.0820   89.9480   51.1470 O   0  0  0  0  0  0  0  0  0  0  0  0
   48.2190   89.7180   49.9630 N   0  0  0  0  0  0  0  0  0  0  0  0
   45.7730   89.6180   55.8650 C   0  0  0  0  0  0  0  0  0  0  0  0
   46.5930   90.2260   54.9140 C   0  0  0  0  0  0  0  0  0  0  0  0
   49.7120   92.2850   49.7860 C   0  0  0  0  0  0  0  0  0  0  0  0
   54.3230   90.4730   50.2790 C   0  0  0  0  0  0  0  0  0  0  0  0
   51.9780   90.7920   49.6900 O   0  0  0  0  0  0  0  0  0  0  0  0
  1  2  1  0
  3 12  1  0
  4 11  1  0
  5  7  1  0
  6  2  1  0
  8 19  1  0
  9  8  1  0
 10  5  1  0
 12 16  1  0
 12  9  1  0
 14 10  1  0
 15  7  1  0
 17  1  1  0
 17  3  1  0
 17  2  1  0
 18  4  1  0
 19 18  1  0
 20 13  1  0
 20  6  1  0
 21 14  1  0
 21 15  1  0
 22 13  1  0
 22 14  1  0
M  END
$$$$

     RDKit          3D

 12 11  0  0  0  0  0  0  0  0999 V2000
   50.8400   91.6650   50.4590 C   0  0  0  0  0  0  0  0  0  0  0  0
   51.0590   92.3070   52.3250 C   0  0  0  0  0  0  0  0  0  0  0  0
   49.6080   89.7860   49.3760 O   0  0  0  0  0  0  0  0  0  0  0  0
   51.6180   90.8530   52.3560 C   0  0  0  0  0  0  0  0  0  0  0  0
   48.8190   90.1910   50.4110 C   0  0  0  0  0  0  0  0  0  0  0  0
   52.5800   90.8130   52.9590 C   0  0  0  0  0  0  0  0  0  0  0  0
   49.7930   92.3900   50.3850 O   0  0  0  0  0  0  0  0  0  0  0  0
   50.5880   93.5520   48.6070 O   0  0  0  0  0  0  0  0  0  0  0  0
   50.3390   93.7030   49.9410 C   0  0  0  0  0  0  0  0  0  0  0  0
   49.5530   91.7830   52.8090 C   0  0  0  0  0  0  0  0  0  0  0  0
   48.9470   91.3610   51.3480 C   0  0  0  0  0  0  0  0  0  0  0  0
   50.9460   89.9910   51.1530 O   0  0  0  0  0  0  0  0  0  0  0  0
  1 12  1  0
  2  4  1  0
  2 10  1  0
  3  5  1  0
  4  6  2  0
  5 11  1  0
  7  1  1  0
  8  9  1  0
  9  7  1  0
 11 10  1  0
 12  4  1  0
M  END
$$$$

     RDKit          3D

 11 10  0  0  0  0  0  0  0  0999 V2000
   48.5140   88.3610   49.5710 O   0  0  0  0  0  0  0  0  0  0  0  0
   49.0370   89.9690   54.2570 N   0  0  0  0  0  0  0  0  0  0  0  0
   47.8800   89.4370   49.4490 C   0  0  0  0  0  0  0  0  0  0  0  0
   49.2670   91.3070   51.1000 C   0  0  0  0  0  0  0  0  0  0  0  0
   49.6960   90.4100   51.9620 C   0  0  0  0  0  0  0  0  0  0  0  0
   46.7580   89.6100   49.8240 O   0  0  0  0  0  0  0  0  0  0  0  0
   49.6750   89.5960   55.5220 C   0  0  0  0  0  0  0  0  0  0  0  0
   50.0120   90.6300   53.4010 C   0  0  0  0  0  0  0  0  0  0  0  0
   49.1500   91.4920   49.5890 C   0  0  0  0  0  0  0  0  0  0  0  0
   48.3240   91.7120   51.6700 O   0  0  0  0  0  0  0  0  0  0  0  0
   48.4690   90.4600   48.8950 N   0  0  0  0  0  0  0  0  0  0  0  0
  2  7  1  0
  3  1  2  0
  3  6  1  0
  4 10  2  0
  4  5  1  0
  5  8  1  0
  8  2  1  0
  9  4  1  0
 11  3  1  0
 11  9  2  3
M  END
$$$$

     RDKit          3D

  2  1  0  0  0  0  0  0  0  0999 V2000
   50.3180   90.6170   53.5590 C   0  0  0  0  0  0  0  0  0  0  0  0
   49.0370   90.2580   53.2410 N   0  0  0  0  0  0  0  0  0  0  0  0
  2  1  1  0
M  END
$$$$

     RDKit          3D

 13 12  0  0  0  0  0  0  0  0999 V2000
   46.9080   89.2540   50.4390 C   0  0  0  0  0  0  0  0  0  0  0  0
   45.8710   90.8510   52.1960 C   0  0  0  0  0  0  0  0  0  0  0  0
   48.2810   90.7010   51.9120 C   0  0  0  0  0  0  0  0  0  0  0  0
   49.3980   89.8530   51.7550 N   0  0  0  0  0  0  0  0  0  0  0  0
   46.9880   90.0970   51.7470 C   0  0  0  0  0  0  0  0  0  0  0  0
   50.6200   90.1180   51.1670 C   0  0  0  0  0  0  0  0  0  0  0  0
   46.1460   88.5130   53.6730 O   0  0  0  0  0  0  0  0  0  0  0  0
   48.4540   91.8970   51.7190 O   0  0  0  0  0  0  0  0  0  0  0  0
   45.5750   90.6340   53.6760 C   0  0  0  0  0  0  0  0  0  0  0  0
   51.4930   91.7280   52.8130 O   0  0  0  0  0  0  0  0  0  0  0  0
   46.2590   89.6450   54.4310 C   0  0  0  0  0  0  0  0  0  0  0  0
   51.7870   90.5060   52.1320 C   0  0  0  0  0  0  0  0  0  0  0  0
   44.6210   91.6120   54.5040 C   0  0  0  0  0  0  0  0  0  0  0  0
  2  9  1  0
  4  3  1  0
  5  1  1  0
  5  3  1  0
  5  2  1  0
  6  4  1  0
  6 12  1  0
  7 11  1  0
  8  3  2  0
  9 11  1  0
  9 13  1  0
 12 10  1  0
M  END
$$$$

     RDKit          3D

 13 13  0  0  0  0  0  0  0  0999 V2000
   45.2740   90.2840   49.8750 C   0  0  0  0  0  0  0  0  0  0  0  0
   48.9180   92.6950   50.1390 O   0  0  0  0  0  0  0  0  0  0  0  0
   50.3190   90.9830   51.1090 C   0  0  0  0  0  0  0  0  0  0  0  0
   53.0890   92.1290   51.6930 O   0  0  0  0  0  0  0  0  0  0  0  0
   51.5790   91.2980   51.8860 C   0  0  0  0  0  0  0  0  0  0  0  0
   50.2740   89.6860   51.1120 C   0  0  0  0  0  0  0  0  0  0  0  0
   46.6310   91.6380   51.1080 C   0  0  0  0  0  0  0  0  0  0  0  0
   45.4440   91.6200   50.4910 N   0  0  0  0  0  0  0  0  0  0  0  0
   47.7020   90.8330   50.7860 C   0  0  0  0  0  0  0  0  0  0  0  0
   50.8200   89.3620   52.3290 O   0  0  0  0  0  0  0  0  0  0  0  0
   48.8790   91.4900   51.1240 C   0  0  0  0  0  0  0  0  0  0  0  0
   52.0800   90.0130   52.1080 C   0  0  0  0  0  0  0  0  0  0  0  0
   52.7650   91.8570   50.4340 C   0  0  0  0  0  0  0  0  0  0  0  0
  1  8  1  0
  3  6  1  0
  3 11  1  0
  3  5  1  0
  5  4  1  0
  5 12  1  0
  6 10  1  0
  8  7  1  0
  9  7  1  0
  9 11  1  0
 11  2  1  0
 12 10  1  0
 13  4  1  0
M  END
$$$$

     RDKit          3D

 12 12  0  0  0  0  0  0  0  0999 V2000
   49.6900   89.0270   50.3740 N   0  0  0  0  0  0  0  0  0  0  0  0
   53.0020   89.2770   52.2660 N   0  0  0  0  0  0  0  0  0  0  0  0
   49.0330   89.0490   49.3250 O   0  0  0  0  0  0  0  0  0  0  0  0
   52.5920   88.8480   51.1080 C   0  0  0  0  0  0  0  0  0  0  0  0
   48.9480   90.2660   50.1500 C   0  0  0  0  0  0  0  0  0  0  0  0
   52.7340   87.8900   50.5020 O   0  0  0  0  0  0  0  0  0  0  0  0
   46.2200   90.5090   50.7910 C   0  0  0  0  0  0  0  0  0  0  0  0
   51.6120   89.6670   50.5230 C   0  0  0  0  0  0  0  0  0  0  0  0
   45.7360   89.1720   50.5290 O   0  0  0  0  0  0  0  0  0  0  0  0
   50.4070   89.1170   51.0930 O   0  0  0  0  0  0  0  0  0  0  0  0
   47.8480   90.4820   51.3450 C   0  0  0  0  0  0  0  0  0  0  0  0
   45.4660   91.3740   50.8610 O   0  0  0  0  0  0  0  0  0  0  0  0
  1 10  1  0
  3  5  1  0
  3  1  1  0
  4  2  1  0
  5  1  1  0
  5 11  1  0
  6  4  2  0
  7 12  1  0
  7 11  1  0
  8 10  1  0
  8  4  1  0
  9  7  2  0
M  END
$$$$

     RDKit          3D

 21 22  0  0  0  0  0  0  0  0999 V2000
   47.1950   90.9190   53.9850 C   0  0  0  0  0  0  0  0  0  0  0  0
   45.2950   91.7460   52.1860 O   0  0  0  0  0  0  0  0  0  0  0  0
   47.6060   91.5500   51.4750 C   0  0  0  0  0  0  0  0  0  0  0  0
   52.9630   90.2400   52.8250 C   0  0  0  0  0  0  0  0  0  0  0  0
   46.8600   91.2510   50.2180 O   0  0  0  0  0  0  0  0  0  0  0  0
   53.0800   88.7360   50.2170 C   0  0  0  0  0  0  0  0  0  0  0  0
   49.2730   90.3200   52.7470 C   0  0  0  0  0  0  0  0  0  0  0  0
   58.0170   88.0070   49.5690 O   0  0  0  0  0  0  0  0  0  0  0  0
   54.0380   90.4300   51.7680 O   0  0  0  0  0  0  0  0  0  0  0  0
   56.5160   89.9140   48.9010 O   0  0  0  0  0  0  0  0  0  0  0  0
   51.6700   89.1520   50.7210 C   0  0  0  0  0  0  0  0  0  0  0  0
   56.6190   87.9500   47.4560 O   0  0  0  0  0  0  0  0  0  0  0  0
   48.7890   90.5600   51.4070 O   0  0  0  0  0  0  0  0  0  0  0  0
   55.5450   87.9420   49.5960 O   0  0  0  0  0  0  0  0  0  0  0  0
   50.5390   89.8320   52.8820 N   0  0  0  0  0  0  0  0  0  0  0  0
   48.5030   90.6100   53.8290 N   0  0  0  0  0  0  0  0  0  0  0  0
   46.5310   91.2900   52.6390 C   0  0  0  0  0  0  0  0  0  0  0  0
   56.7110   88.3930   48.7250 S   0  0  0  0  0  0  0  0  0  0  0  0
   54.1820   89.0810   51.1360 C   0  0  0  0  0  0  0  0  0  0  0  0
   51.7210   90.0280   52.0770 C   0  0  0  0  0  0  0  0  0  0  0  0
   55.5860   88.7090   50.7510 C   0  0  0  0  0  0  0  0  0  0  0  0
  3  5  1  0
  3 17  1  0
  6 11  1  0
  6 19  1  0
  7 15  1  0
  7 16  2  0
  9  4  1  0
 11 20  1  0
 12 18  1  0
 13  3  1  0
 13  7  1  0
 14 21  1  0
 16  1  1  0
 17  2  1  0
 17  1  1  0
 18 10  1  0
 18  8  1  0
 18 14  1  0
 19 21  1  0
 19  9  1  0
 20  4  1  0
 20 15  1  0
M  END
$$$$

     RDKit          3D

 13 15  0  0  0  0  0  0  0  0999 V2000
   50.8950   89.4600   54.2520 O   0  0  0  0  0  0  0  0  0  0  0  0
   46.2280   89.8040   52.7860 S   0  0  0  0  0  0  0  0  0  0  0  0
   51.8660   91.9370   52.6850 C   0  0  0  0  0  0  0  0  0  0  0  0
   47.6760   90.5750   52.9150 C   0  0  0  0  0  0  0  0  0  0  0  0
   46.6630   89.3990   54.4170 C   0  0  0  0  0  0  0  0  0  0  0  0
   50.0590   90.5970   53.9600 C   0  0  0  0  0  0  0  0  0  0  0  0
   47.9480   89.3500   54.7740 N   0  0  0  0  0  0  0  0  0  0  0  0
   48.5770   90.1960   53.8510 C   0  0  0  0  0  0  0  0  0  0  0  0
   49.5430   92.4940   50.3950 C   0  0  0  0  0  0  0  0  0  0  0  0
   50.5950   91.1460   52.5720 C   0  0  0  0  0  0  0  0  0  0  0  0
   50.6750   90.0410   51.4080 C   0  0  0  0  0  0  0  0  0  0  0  0
   48.0590   91.5500   51.7860 C   0  0  0  0  0  0  0  0  0  0  0  0
   49.6080   91.4200   51.5750 C   0  0  0  0  0  0  0  0  0  0  0  0
  2  4  1  0
  2  5  1  0
  4  8  2  0
  5  7  1  0
  6  1  1  0
  8  6  1  0
  8  7  1  0
 10  3  1  0
 10  6  1  0
 11 13  1  0
 11 10  1  0
 12  4  1  0
 13  9  1  0
 13 12  1  0
 13 10  1  0
M  END
$$$$

     RDKit          3D

 16 18  0  0  0  0  0  0  0  0999 V2000
   48.2760   89.9410   50.5290 N   0  0  0  0  0  0  0  0  0  0  0  0
   50.8840   91.6440   52.3250 C   0  0  0  0  0  0  0  0  0  0  0  0
   49.6230   91.8610   52.6280 O   0  0  0  0  0  0  0  0  0  0  0  0
   46.5230   89.0720   49.3790 C   0  0  0  0  0  0  0  0  0  0  0  0
   49.0020   90.7340   52.9120 C   0  0  0  0  0  0  0  0  0  0  0  0
   52.7000   90.3340   51.5500 C   0  0  0  0  0  0  0  0  0  0  0  0
   45.3590   89.6950   50.1020 C   0  0  0  0  0  0  0  0  0  0  0  0
   48.3520   87.7100   50.1450 O   0  0  0  0  0  0  0  0  0  0  0  0
   45.2610   88.5470   49.0400 C   0  0  0  0  0  0  0  0  0  0  0  0
   51.7420   92.7740   52.2180 N   0  0  0  0  0  0  0  0  0  0  0  0
   50.4500   89.5090   51.4500 C   0  0  0  0  0  0  0  0  0  0  0  0
   52.9860   92.5920   51.8030 C   0  0  0  0  0  0  0  0  0  0  0  0
   53.5430   91.3760   51.5230 C   0  0  0  0  0  0  0  0  0  0  0  0
   47.7170   88.7870   50.0300 C   0  0  0  0  0  0  0  0  0  0  0  0
   49.0380   89.9330   51.6510 C   0  0  0  0  0  0  0  0  0  0  0  0
   51.3530   90.4870   51.7200 C   0  0  0  0  0  0  0  0  0  0  0  0
  2  3  1  0
  3  5  1  0
  4 14  1  0
  4  7  1  0
  6 16  1  0
  9  4  1  0
  9  7  1  0
 10  2  2  0
 11 15  1  0
 12 10  1  0
 13  6  1  0
 13 12  2  0
 14  8  2  0
 14  1  1  0
 15  1  1  0
 15  5  1  0
 16 11  1  0
 16  2  1  0
M  END
$$$$

     RDKit          3D

 14 15  0  0  0  0  0  0  0  0999 V2000
   49.0400   91.2150   51.6860 C   0  0  0  0  0  0  0  0  0  0  0  0
   50.5360   90.9900   51.8050 N   0  0  0  0  0  0  0  0  0  0  0  0
   50.7340   90.4320   53.0920 C   0  0  0  0  0  0  0  0  0  0  0  0
   47.0970   90.5910   53.1600 O   0  0  0  0  0  0  0  0  0  0  0  0
   48.9530   89.3000   54.6400 N   0  0  0  0  0  0  0  0  0  0  0  0
   51.8530   89.0350   51.1560 C   0  0  0  0  0  0  0  0  0  0  0  0
   52.9930   88.3480   50.7980 N   0  0  0  0  0  0  0  0  0  0  0  0
   53.8960   89.7280   48.9400 C   0  0  0  0  0  0  0  0  0  0  0  0
   52.5260   91.4230   50.4630 C   0  0  0  0  0  0  0  0  0  0  0  0
   49.4510   90.5900   53.9530 C   0  0  0  0  0  0  0  0  0  0  0  0
   53.3460   91.0440   49.3050 C   0  0  0  0  0  0  0  0  0  0  0  0
   48.4160   91.2500   53.0390 C   0  0  0  0  0  0  0  0  0  0  0  0
   51.3760   90.3880   50.7280 C   0  0  0  0  0  0  0  0  0  0  0  0
   53.1760   88.5730   49.4130 C   0  0  0  0  0  0  0  0  0  0  0  0
  1 12  1  0
  2  1  1  0
  2  3  1  0
  3 10  1  0
  7  6  1  0
  8 11  1  0
  8 14  1  0
 10  5  1  0
 11  9  1  0
 12  4  1  0
 12 10  1  0
 13  9  1  0
 13  6  1  0
 13  2  1  0
 14  7  1  0
M  END
$$$$

     RDKit          3D

 21 22  0  0  0  0  0  0  0  0999 V2000
   53.6530   90.7360   49.3330 O   0  0  0  0  0  0  0  0  0  0  0  0
   53.4540   89.4050   50.1300 C   0  0  0  0  0  0  0  0  0  0  0  0
   43.8150   93.3510   53.9400 O   0  0  0  0  0  0  0  0  0  0  0  0
   47.3750   90.7890   52.1690 C   0  0  0  0  0  0  0  0  0  0  0  0
   50.8730   92.4410   50.9300 O   0  0  0  0  0  0  0  0  0  0  0  0
   54.5900   87.8680   51.7340 C   0  0  0  0  0  0  0  0  0  0  0  0
   46.6190   91.5280   54.5290 O   0  0  0  0  0  0  0  0  0  0  0  0
   48.8230   91.0900   52.8530 C   0  0  0  0  0  0  0  0  0  0  0  0
   54.3140   86.9810   50.5950 N   0  0  0  0  0  0  0  0  0  0  0  0
   45.2590   92.1290   52.2770 C   0  0  0  0  0  0  0  0  0  0  0  0
   53.4450   87.3560   49.5890 C   0  0  0  0  0  0  0  0  0  0  0  0
   52.5800   88.6190   49.5440 C   0  0  0  0  0  0  0  0  0  0  0  0
   46.2810   91.3950   53.1370 C   0  0  0  0  0  0  0  0  0  0  0  0
   47.2600   91.2030   50.9170 O   0  0  0  0  0  0  0  0  0  0  0  0
   49.2100   90.3950   53.9780 O   0  0  0  0  0  0  0  0  0  0  0  0
   51.3460   90.3290   51.1900 N   0  0  0  0  0  0  0  0  0  0  0  0
   51.1650   89.5400   49.9200 C   0  0  0  0  0  0  0  0  0  0  0  0
   50.7710   91.4270   51.4020 C   0  0  0  0  0  0  0  0  0  0  0  0
   44.7500   93.5420   52.8650 C   0  0  0  0  0  0  0  0  0  0  0  0
   54.5390   89.4000   51.2580 C   0  0  0  0  0  0  0  0  0  0  0  0
   49.9190   90.5750   51.7140 C   0  0  0  0  0  0  0  0  0  0  0  0
  2  1  1  0
  2 20  1  0
  4 14  1  0
  4  8  1  0
  4 13  1  0
  5 18  2  0
  8 15  1  0
  9  6  1  0
 10 19  1  0
 10 13  1  0
 11  9  2  0
 12 11  1  0
 12 17  1  0
 12  2  1  0
 13  7  1  0
 16 18  1  0
 16 21  1  0
 17 16  1  0
 18 21  1  0
 19  3  1  0
 20  6  1  0
 21  8  1  0
M  END
$$$$

     RDKit          3D

 15 16  0  0  0  0  0  0  0  0999 V2000
   53.7470   89.4420   50.4660 O   0  0  0  0  0  0  0  0  0  0  0  0
   46.5660   91.1290   51.2240 C   0  0  0  0  0  0  0  0  0  0  0  0
   48.3830   90.8980   49.8150 C   0  0  0  0  0  0  0  0  0  0  0  0
   47.6260   89.8310   54.2130 C   0  0  0  0  0  0  0  0  0  0  0  0
   47.1960   89.8630   52.0390 C   0  0  0  0  0  0  0  0  0  0  0  0
   50.6510   91.3470   50.1270 C   0  0  0  0  0  0  0  0  0  0  0  0
   47.1320   88.3180   53.7580 O   0  0  0  0  0  0  0  0  0  0  0  0
   49.6420   90.3090   51.9260 C   0  0  0  0  0  0  0  0  0  0  0  0
   52.5610   91.4180   48.9110 O   0  0  0  0  0  0  0  0  0  0  0  0
   48.2520   90.4680   52.9900 C   0  0  0  0  0  0  0  0  0  0  0  0
   52.5760   89.7360   50.7200 C   0  0  0  0  0  0  0  0  0  0  0  0
   52.1290   91.1220   50.2620 C   0  0  0  0  0  0  0  0  0  0  0  0
   45.8660   90.3000   52.2850 O   0  0  0  0  0  0  0  0  0  0  0  0
   47.6070   91.9740   50.5370 C   0  0  0  0  0  0  0  0  0  0  0  0
   49.5320   90.4580   50.5890 N   0  0  0  0  0  0  0  0  0  0  0  0
  1 11  2  0
  2 14  1  0
  2  5  1  0
  2 13  1  0
  3 14  1  0
  3 15  1  0
  5 13  1  0
  5 10  1  0
  6 12  1  0
  6 15  1  0
  7  4  1  0
  8 10  1  0
 10  4  1  0
 12  9  1  0
 12 11  1  0
 15  8  1  0
M  END
$$$$

     RDKit          3D

 12 12  0  0  0  0  0  0  0  0999 V2000
   46.3430   90.7810   49.6060 O   0  0  0  0  0  0  0  0  0  0  0  0
   48.6150   91.0440   49.6730 C   0  0  0  0  0  0  0  0  0  0  0  0
   50.9020   91.1440   52.5250 C   0  0  0  0  0  0  0  0  0  0  0  0
   48.7270   92.4700   51.5030 O   0  0  0  0  0  0  0  0  0  0  0  0
   49.8280   90.4530   51.7370 C   0  0  0  0  0  0  0  0  0  0  0  0
   50.9670   91.7150   50.1000 O   0  0  0  0  0  0  0  0  0  0  0  0
   46.2990   91.9500   52.0140 O   0  0  0  0  0  0  0  0  0  0  0  0
   49.2170   90.1420   52.8590 O   0  0  0  0  0  0  0  0  0  0  0  0
   47.3430   91.7630   51.4690 C   0  0  0  0  0  0  0  0  0  0  0  0
   49.6070   91.5330   50.7230 C   0  0  0  0  0  0  0  0  0  0  0  0
   48.8500   90.5390   48.7010 O   0  0  0  0  0  0  0  0  0  0  0  0
   47.4940   91.0980   50.3200 C   0  0  0  0  0  0  0  0  0  0  0  0
  2 12  1  0
  2 10  1  0
  5  3  1  0
  5  8  1  0
  9  4  1  0
  9  7  2  0
 10  6  1  0
 10  4  1  0
 10  5  1  0
 11  2  2  0
 12  1  1  0
 12  9  1  0
M  END
$$$$

     RDKit          3D

 11 11  0  0  0  0  0  0  0  0999 V2000
   51.0730   89.7640   51.9090 C   0  0  0  0  0  0  0  0  0  0  0  0
   48.9280   91.0530   51.7440 N   0  0  0  0  0  0  0  0  0  0  0  0
   45.8740   92.1170   50.1230 C   0  0  0  0  0  0  0  0  0  0  0  0
   48.8630   93.4330   50.9290 O   0  0  0  0  0  0  0  0  0  0  0  0
   46.7280   93.3040   50.7940 N   0  0  0  0  0  0  0  0  0  0  0  0
   48.5400   91.0610   53.0210 C   0  0  0  0  0  0  0  0  0  0  0  0
   49.6910   90.1900   51.7040 C   0  0  0  0  0  0  0  0  0  0  0  0
   49.7770   90.6000   54.1330 C   0  0  0  0  0  0  0  0  0  0  0  0
   48.1680   91.3890   50.4030 C   0  0  0  0  0  0  0  0  0  0  0  0
   48.0650   92.7390   50.8060 C   0  0  0  0  0  0  0  0  0  0  0  0
   51.1040   89.9180   53.5280 N   0  0  0  0  0  0  0  0  0  0  0  0
  1 11  1  0
  2  6  1  0
  3  5  1  0
  5 10  1  0
  6  8  1  0
  7  2  1  0
  7  1  1  0
  9 10  1  0
  9  2  1  0
 10  4  2  0
 11  8  1  0
M  END
$$$$

     RDKit          3D

 11 12  0  0  0  0  0  0  0  0999 V2000
   50.8950   91.4660   48.7640 C   0  0  0  0  0  0  0  0  0  0  0  0
   47.5640   90.4880   49.9630 C   0  0  0  0  0  0  0  0  0  0  0  0
   52.1710   91.0930   48.8600 C   0  0  0  0  0  0  0  0  0  0  0  0
   52.4990   89.9360   49.5410 C   0  0  0  0  0  0  0  0  0  0  0  0
   49.1510   88.8390   50.5760 N   0  0  0  0  0  0  0  0  0  0  0  0
   51.4110   89.1660   50.0350 C   0  0  0  0  0  0  0  0  0  0  0  0
   47.9260   89.3020   50.6440 C   0  0  0  0  0  0  0  0  0  0  0  0
   50.1470   89.5350   49.7800 C   0  0  0  0  0  0  0  0  0  0  0  0
   47.0360   88.6780   51.4600 N   0  0  0  0  0  0  0  0  0  0  0  0
   49.8400   90.8020   49.3050 C   0  0  0  0  0  0  0  0  0  0  0  0
   48.4580   91.2170   49.3800 C   0  0  0  0  0  0  0  0  0  0  0  0
  1  3  2  0
  1 10  1  0
  2  7  1  0
  3  4  1  0
  4  6  2  0
  5  7  2  0
  7  9  1  0
  8  6  1  0
  8  5  1  0
 10 11  1  0
 10  8  2  0
 11  2  2  0
M  END
$$$$
