
     RDKit          3D

  7  8  0  0  0  0  0  0  0  0999 V2000
   63.7750   40.5580   37.6290 N   0  0  0  0  0  0  0  0  0  0  0  0
   61.3620   39.2000   35.2360 O   0  0  0  0  0  0  0  0  0  0  0  0
   62.4020   39.4110   34.9530 C   0  0  0  0  0  0  0  0  0  0  0  0
   63.1280   40.4560   36.3740 C   0  0  0  0  0  0  0  0  0  0  0  0
   64.1370   41.1800   35.4950 C   0  0  0  0  0  0  0  0  0  0  0  0
   63.6520   39.9280   35.0680 C   0  0  0  0  0  0  0  0  0  0  0  0
   64.4840   38.7450   35.2520 O   0  0  0  0  0  0  0  0  0  0  0  0
  3  6  1  0
  3  2  1  0
  3  4  1  0
  4  1  1  0
  5  4  1  0
  6  7  1  0
  6  5  1  0
  6  4  1  0
M  END
$$$$

     RDKit          3D

 10  9  0  0  0  0  0  0  0  0999 V2000
   62.9500   40.6430   30.7310 O   0  0  0  0  0  0  0  0  0  0  0  0
   64.5270   38.8620   30.1570 C   0  0  0  0  0  0  0  0  0  0  0  0
   62.3980   42.9000   31.2650 C   0  0  0  0  0  0  0  0  0  0  0  0
   63.6490   39.9050   29.7700 C   0  0  0  0  0  0  0  0  0  0  0  0
   65.8260   42.0820   30.6720 O   0  0  0  0  0  0  0  0  0  0  0  0
   64.9560   42.4550   31.3320 C   0  0  0  0  0  0  0  0  0  0  0  0
   60.0200   41.5780   30.6450 C   0  0  0  0  0  0  0  0  0  0  0  0
   63.5470   41.8150   31.4800 C   0  0  0  0  0  0  0  0  0  0  0  0
   60.9680   42.3150   31.0900 C   0  0  0  0  0  0  0  0  0  0  0  0
   65.1240   43.3860   32.1650 O   0  0  0  0  0  0  0  0  0  0  0  0
  1  8  1  0
  4  2  1  0
  4  1  1  0
  5  6  2  0
  6  8  1  0
  6 10  1  0
  7  9  3  0
  8  3  1  0
  9  3  1  0
M  END
$$$$

     RDKit          3D

  7  6  0  0  0  0  0  0  0  0999 V2000
   65.2420   46.8950   34.8880 O   0  0  0  0  0  0  0  0  0  0  0  0
   63.5900   47.7940   38.7360 O   0  0  0  0  0  0  0  0  0  0  0  0
   64.7040   46.0360   37.3740 C   0  0  0  0  0  0  0  0  0  0  0  0
   64.4280   46.7980   38.6760 C   0  0  0  0  0  0  0  0  0  0  0  0
   64.3160   46.6820   35.9590 C   0  0  0  0  0  0  0  0  0  0  0  0
   65.3360   46.9880   39.5760 C   0  0  0  0  0  0  0  0  0  0  0  0
   62.9420   47.1810   35.8380 C   0  0  0  0  0  0  0  0  0  0  0  0
  1  5  1  0
  3  4  1  0
  4  2  1  0
  4  6  2  0
  5  7  1  0
  5  3  1  0
M  END
$$$$

     RDKit          3D

 13 14  0  0  0  0  0  0  0  0999 V2000
   66.4450   41.2010   30.7490 S   0  0  0  0  0  0  0  0  0  0  0  0
   65.7720   39.5740   33.4820 N   0  0  0  0  0  0  0  0  0  0  0  0
   65.0950   40.7170   33.3830 C   0  0  0  0  0  0  0  0  0  0  0  0
   65.2210   40.8380   35.6710 C   0  0  0  0  0  0  0  0  0  0  0  0
   63.5470   43.2230   31.0750 C   0  0  0  0  0  0  0  0  0  0  0  0
   64.9210   41.4300   31.9420 C   0  0  0  0  0  0  0  0  0  0  0  0
   63.5730   41.7380   30.9250 C   0  0  0  0  0  0  0  0  0  0  0  0
   61.9440   41.2960   30.0430 C   0  0  0  0  0  0  0  0  0  0  0  0
   64.1540   41.4430   29.6270 N   0  0  0  0  0  0  0  0  0  0  0  0
   66.3760   39.2530   34.6210 C   0  0  0  0  0  0  0  0  0  0  0  0
   65.4050   41.4810   29.4240 C   0  0  0  0  0  0  0  0  0  0  0  0
   64.5220   40.9130   34.5510 N   0  0  0  0  0  0  0  0  0  0  0  0
   66.0050   39.8940   35.8450 N   0  0  0  0  0  0  0  0  0  0  0  0
  1  6  1  0
  2 10  1  0
  3  2  2  0
  3 12  1  0
  4 13  1  0
  6  3  1  0
  7  5  1  0
  7  6  1  0
  8  7  1  0
  9  7  1  0
 10 13  1  0
 11  9  1  0
 11  1  1  0
 12  4  1  0
M  END
$$$$

     RDKit          3D

  1  0  0  0  0  0  0  0  0  0999 V2000
  -18.4920  -45.9040  141.3810 O   0  0  0  0  0  0  0  0  0  0  0  0
M  END
$$$$

     RDKit          3D

  8  7  0  0  0  0  0  0  0  0999 V2000
   66.5570   41.3600   31.0780 C   0  0  0  0  0  0  0  0  0  0  0  0
   67.5850   40.6560   32.0260 C   0  0  0  0  0  0  0  0  0  0  0  0
   65.7720   39.0730   30.8820 O   0  0  0  0  0  0  0  0  0  0  0  0
   64.7100   40.3530   32.2800 O   0  0  0  0  0  0  0  0  0  0  0  0
   65.5640   40.2420   31.2900 C   0  0  0  0  0  0  0  0  0  0  0  0
   68.4270   39.9190   31.1690 O   0  0  0  0  0  0  0  0  0  0  0  0
   66.6400   43.0090   30.8780 S   0  0  0  0  0  0  0  0  0  0  0  0
   68.4230   41.5230   32.9060 C   0  0  0  0  0  0  0  0  0  0  0  0
  1  5  1  0
  1  2  1  0
  2  8  1  0
  3  5  2  0
  5  4  1  0
  6  2  1  0
  7  1  2  0
M  END
$$$$

     RDKit          3D

 12 13  0  0  0  0  0  0  0  0999 V2000
   61.6920   42.6230   33.6760 C   0  0  0  0  0  0  0  0  0  0  0  0
   61.6220   46.1180   38.6580 C   0  0  0  0  0  0  0  0  0  0  0  0
   60.6130   44.0940   36.8790 O   0  0  0  0  0  0  0  0  0  0  0  0
   64.6500   45.6700   36.5520 C   0  0  0  0  0  0  0  0  0  0  0  0
   63.6360   45.7250   37.7080 C   0  0  0  0  0  0  0  0  0  0  0  0
   61.7540   43.3490   32.7020 C   0  0  0  0  0  0  0  0  0  0  0  0
   61.6980   43.8460   34.1630 C   0  0  0  0  0  0  0  0  0  0  0  0
   62.5780   44.3590   35.3680 C   0  0  0  0  0  0  0  0  0  0  0  0
   63.8750   45.4910   34.8660 S   0  0  0  0  0  0  0  0  0  0  0  0
   61.6770   44.8080   36.5360 C   0  0  0  0  0  0  0  0  0  0  0  0
   60.9720   41.3590   33.8470 C   0  0  0  0  0  0  0  0  0  0  0  0
   62.1990   45.8990   37.3200 N   0  0  0  0  0  0  0  0  0  0  0  0
  1 11  1  0
  1  7  1  0
  4  5  1  0
  6  1  1  0
  7  6  1  0
  7  8  1  0
  8  9  1  0
  8 10  1  0
  9  4  1  0
 10  3  2  0
 10 12  1  0
 12  5  1  0
 12  2  1  0
M  END
$$$$

     RDKit          3D

 11 11  0  0  0  0  0  0  0  0999 V2000
   62.1170   42.5360   33.7700 C   0  0  0  0  0  0  0  0  0  0  0  0
   62.0920   44.8000   34.0680 C   0  0  0  0  0  0  0  0  0  0  0  0
   60.9350   42.2550   33.3260 C   0  0  0  0  0  0  0  0  0  0  0  0
   59.4220   40.6200   32.3690 O   0  0  0  0  0  0  0  0  0  0  0  0
   61.2090   39.7910   32.0800 O   0  0  0  0  0  0  0  0  0  0  0  0
   62.6700   46.0770   34.7210 N   0  0  0  0  0  0  0  0  0  0  0  0
   60.6420   44.6530   33.8050 C   0  0  0  0  0  0  0  0  0  0  0  0
   60.5040   41.0370   32.5010 C   0  0  0  0  0  0  0  0  0  0  0  0
   62.8870   43.6750   33.9550 C   0  0  0  0  0  0  0  0  0  0  0  0
   60.1470   43.3390   33.6780 C   0  0  0  0  0  0  0  0  0  0  0  0
   62.7460   41.2600   33.3680 O   0  0  0  0  0  0  0  0  0  0  0  0
  1 11  1  0
  1  9  1  0
  2  6  1  0
  3  8  1  0
  3 10  1  0
  3  1  1  0
  4  8  1  0
  5  8  2  0
  7  2  1  0
  9  2  1  0
 10  7  1  0
M  END
$$$$

     RDKit          3D

 12 12  0  0  0  0  0  0  0  0999 V2000
   64.4320   44.1760   33.5570 O   0  0  0  0  0  0  0  0  0  0  0  0
   68.4530   39.3740   33.1180 O   0  0  0  0  0  0  0  0  0  0  0  0
   64.9460   43.7430   36.4510 C   0  0  0  0  0  0  0  0  0  0  0  0
   65.4260   42.8130   35.2870 C   0  0  0  0  0  0  0  0  0  0  0  0
   65.7560   44.5690   37.4110 C   0  0  0  0  0  0  0  0  0  0  0  0
   68.5580   39.3510   35.2580 O   0  0  0  0  0  0  0  0  0  0  0  0
   67.2510   41.2720   34.5510 C   0  0  0  0  0  0  0  0  0  0  0  0
   68.4680   40.1620   34.3570 C   0  0  0  0  0  0  0  0  0  0  0  0
   66.4080   41.8500   35.5990 C   0  0  0  0  0  0  0  0  0  0  0  0
   65.9720   42.6050   32.8860 C   0  0  0  0  0  0  0  0  0  0  0  0
   66.8160   41.5320   33.2730 C   0  0  0  0  0  0  0  0  0  0  0  0
   65.2380   43.2230   33.9400 C   0  0  0  0  0  0  0  0  0  0  0  0
  1 12  1  0
  2  8  1  0
  3  5  1  0
  4  9  1  0
  4  3  1  0
  7  9  2  0
  8  7  1  0
  8  6  1  0
 10 11  2  0
 10 12  1  0
 11  7  1  0
 12  4  2  0
M  END
$$$$

     RDKit          3D

  7  6  0  0  0  0  0  0  0  0999 V2000
   65.0560   40.4850   32.5770 C   0  0  0  0  0  0  0  0  0  0  0  0
   64.9600   38.6520   34.1720 C   0  0  0  0  0  0  0  0  0  0  0  0
   66.1710   40.9370   32.0210 C   0  0  0  0  0  0  0  0  0  0  0  0
   65.0770   38.9660   32.7440 C   0  0  0  0  0  0  0  0  0  0  0  0
   67.3640   40.0430   33.2600 S   0  0  0  0  0  0  0  0  0  0  0  0
   63.5350   40.9540   32.7420 C   0  0  0  0  0  0  0  0  0  0  0  0
   66.3530   40.5890   30.6220 O   0  0  0  0  0  0  0  0  0  0  0  0
  1  6  1  0
  1  4  1  0
  3  7  1  0
  3  1  1  0
  3  5  1  0
  4  2  1  0
M  END
$$$$

     RDKit          3D

  4  4  0  0  0  0  0  0  0  0999 V2000
   67.3290   48.2900   35.8970 C   0  0  0  0  0  0  0  0  0  0  0  0
   66.5120   49.0760   34.3790 Cl  0  0  0  0  0  0  0  0  0  0  0  0
   66.7190   48.9760   37.0330 N   0  0  0  0  0  0  0  0  0  0  0  0
   68.0740   48.3270   37.2230 C   0  0  0  0  0  0  0  0  0  0  0  0
  1  2  1  0
  1  3  1  0
  1  4  1  0
  3  4  1  0
M  END
$$$$

     RDKit          3D

 47 48  0  0  0  0  0  0  0  0999 V2000
   66.4010   38.8650   30.3910 O   0  0  0  0  0  0  0  0  0  0  0  0
   68.6570   40.0710   31.9690 C   0  0  0  0  0  0  0  0  0  0  0  0
   58.1630   48.5640   29.2110 C   0  0  0  0  0  0  0  0  0  0  0  0
   68.8910   39.0700   31.6590 O   0  0  0  0  0  0  0  0  0  0  0  0
   70.0890   40.3370   28.9650 C   0  0  0  0  0  0  0  0  0  0  0  0
   67.0810   39.8650   30.2840 C   0  0  0  0  0  0  0  0  0  0  0  0
   69.6370   39.4300   28.2020 C   0  0  0  0  0  0  0  0  0  0  0  0
   61.8010   45.1000   31.8330 O   0  0  0  0  0  0  0  0  0  0  0  0
   68.6470   40.8240   26.3290 C   0  0  0  0  0  0  0  0  0  0  0  0
   63.0630   46.8950   38.9200 C   0  0  0  0  0  0  0  0  0  0  0  0
   58.8310   49.0530   31.3940 C   0  0  0  0  0  0  0  0  0  0  0  0
   62.1520   45.8880   36.0360 C   0  0  0  0  0  0  0  0  0  0  0  0
   64.4210   47.5890   39.1140 C   0  0  0  0  0  0  0  0  0  0  0  0
   59.8140   44.4850   38.5740 C   0  0  0  0  0  0  0  0  0  0  0  0
   66.4640   45.1990   41.0680 O   0  0  0  0  0  0  0  0  0  0  0  0
   64.1910   49.0460   38.9640 C   0  0  0  0  0  0  0  0  0  0  0  0
   65.3940   43.3470   32.4980 C   0  0  0  0  0  0  0  0  0  0  0  0
   70.8920   40.5890   26.7640 C   0  0  0  0  0  0  0  0  0  0  0  0
   57.8720   49.6180   30.2680 C   0  0  0  0  0  0  0  0  0  0  0  0
   69.7730   40.0250   26.8850 C   0  0  0  0  0  0  0  0  0  0  0  0
   67.6620   41.2490   32.0610 C   0  0  0  0  0  0  0  0  0  0  0  0
   65.2330   46.7580   40.0420 C   0  0  0  0  0  0  0  0  0  0  0  0
   56.3740   49.9430   30.1320 C   0  0  0  0  0  0  0  0  0  0  0  0
   69.7490   40.4670   32.7320 O   0  0  0  0  0  0  0  0  0  0  0  0
   67.3480   44.3240   42.8180 F   0  0  0  0  0  0  0  0  0  0  0  0
   59.5370   47.7240   30.8940 C   0  0  0  0  0  0  0  0  0  0  0  0
   65.2390   45.9170   40.8300 C   0  0  0  0  0  0  0  0  0  0  0  0
   62.0120   44.9430   33.4440 C   0  0  0  0  0  0  0  0  0  0  0  0
   68.4230   40.1110   29.3280 C   0  0  0  0  0  0  0  0  0  0  0  0
   60.7740   47.6300   31.7570 C   0  0  0  0  0  0  0  0  0  0  0  0
   60.9610   45.3710   36.6230 C   0  0  0  0  0  0  0  0  0  0  0  0
   65.2800   42.0100   31.1980 S   0  0  0  0  0  0  0  0  0  0  0  0
   60.0540   44.8380   35.9430 O   0  0  0  0  0  0  0  0  0  0  0  0
   63.3870   44.4220   33.5590 O   0  0  0  0  0  0  0  0  0  0  0  0
   59.3150   47.7610   29.5680 C   0  0  0  0  0  0  0  0  0  0  0  0
   60.2420   47.1530   33.1110 C   0  0  0  0  0  0  0  0  0  0  0  0
   62.6950   47.2060   36.5440 C   0  0  0  0  0  0  0  0  0  0  0  0
   62.1140   46.1100   34.5410 C   0  0  0  0  0  0  0  0  0  0  0  0
   61.0780   47.1710   34.1990 C   0  0  0  0  0  0  0  0  0  0  0  0
   70.9940   41.3730   28.1380 O   0  0  0  0  0  0  0  0  0  0  0  0
   67.1000   46.6160   42.5800 O   0  0  0  0  0  0  0  0  0  0  0  0
   71.1590   39.8230   29.8370 F   0  0  0  0  0  0  0  0  0  0  0  0
   60.7420   45.4320   38.0040 O   0  0  0  0  0  0  0  0  0  0  0  0
   66.8360   41.2410   30.7470 C   0  0  0  0  0  0  0  0  0  0  0  0
   62.9150   47.4500   37.6820 C   0  0  0  0  0  0  0  0  0  0  0  0
   66.8610   45.4060   42.3410 C   0  0  0  0  0  0  0  0  0  0  0  0
   63.9430   43.5000   32.9170 C   0  0  0  0  0  0  0  0  0  0  0  0
  2 21  1  0
  2 24  1  0
  3 35  1  0
  3 19  1  0
  4  2  2  0
  5 29  1  0
  5 42  1  0
  6  1  2  0
  6 44  1  0
  7  5  1  0
 10 13  1  0
 12 37  1  0
 12 31  1  0
 13 16  1  0
 13 22  1  0
 15 46  1  0
 17 47  1  0
 18 20  1  0
 18 40  1  0
 19 23  1  0
 19 11  1  0
 20  9  1  0
 20  7  1  0
 22 27  1  0
 26 11  1  0
 26 30  1  0
 27 15  1  0
 28  8  1  0
 28 34  1  0
 28 38  1  0
 29  6  1  0
 30 36  1  0
 31 43  1  0
 32 17  1  0
 33 31  2  0
 35 26  1  0
 36 39  1  0
 37 45  2  3
 38 39  1  0
 38 12  1  0
 40  5  1  0
 43 14  1  0
 44 32  1  0
 44 21  1  0
 45 10  1  0
 46 41  2  0
 46 25  1  0
 47 34  1  0
M  END
$$$$

     RDKit          3D

 16 18  0  0  0  0  0  0  0  0999 V2000
   63.4780   42.9620   29.5040 C   0  0  0  0  0  0  0  0  0  0  0  0
   62.8460   44.5400   37.1220 O   0  0  0  0  0  0  0  0  0  0  0  0
   63.5970   43.4860   36.7670 C   0  0  0  0  0  0  0  0  0  0  0  0
   63.8050   43.0450   31.8150 C   0  0  0  0  0  0  0  0  0  0  0  0
   62.4000   43.0720   32.0360 C   0  0  0  0  0  0  0  0  0  0  0  0
   65.3160   42.7520   28.1770 C   0  0  0  0  0  0  0  0  0  0  0  0
   60.8230   43.0810   29.9780 C   0  0  0  0  0  0  0  0  0  0  0  0
   64.0440   43.1020   34.0290 C   0  0  0  0  0  0  0  0  0  0  0  0
   64.6540   42.9340   32.9190 N   0  0  0  0  0  0  0  0  0  0  0  0
   64.0390   42.0890   37.3790 C   0  0  0  0  0  0  0  0  0  0  0  0
   63.6450   42.5230   28.1150 C   0  0  0  0  0  0  0  0  0  0  0  0
   63.7810   43.5930   35.3660 C   0  0  0  0  0  0  0  0  0  0  0  0
   61.7850   42.7770   30.7920 C   0  0  0  0  0  0  0  0  0  0  0  0
   62.9630   43.7100   34.4310 N   0  0  0  0  0  0  0  0  0  0  0  0
   64.1920   42.4840   30.5990 C   0  0  0  0  0  0  0  0  0  0  0  0
   62.2270   43.4680   29.6940 C   0  0  0  0  0  0  0  0  0  0  0  0
  1 11  1  0
  1 16  1  0
  1 15  1  0
  3  2  1  0
  3 10  1  0
  4  5  1  0
  4  9  1  0
  8 14  2  0
  8 12  1  0
  9  8  1  0
 11  6  1  0
 12  3  1  0
 13  7  1  0
 13  5  1  0
 14 12  1  0
 15  4  1  0
 16  7  1  0
 16 13  1  0
M  END
$$$$

     RDKit          3D

  6  5  0  0  0  0  0  0  0  0999 V2000
   63.3030   43.4670   33.7620 O   0  0  0  0  0  0  0  0  0  0  0  0
   62.8370   43.4950   32.3650 C   0  0  0  0  0  0  0  0  0  0  0  0
   64.2660   42.7740   31.5760 C   0  0  0  0  0  0  0  0  0  0  0  0
   62.6330   44.9910   31.9780 C   0  0  0  0  0  0  0  0  0  0  0  0
   64.4750   41.5120   31.7230 C   0  0  0  0  0  0  0  0  0  0  0  0
   65.6480   43.4770   30.5330 S   0  0  0  0  0  0  0  0  0  0  0  0
  2  4  1  0
  2  1  1  0
  3  5  2  0
  3  2  1  0
  6  3  1  0
M  END
$$$$

     RDKit          3D

  7  7  0  0  0  0  0  0  0  0999 V2000
   58.7360   47.0680   32.9860 C   0  0  0  0  0  0  0  0  0  0  0  0
   58.8810   45.3180   31.5270 C   0  0  0  0  0  0  0  0  0  0  0  0
   59.1870   46.6530   31.7430 C   0  0  0  0  0  0  0  0  0  0  0  0
   58.8310   45.8030   33.7600 C   0  0  0  0  0  0  0  0  0  0  0  0
   59.3250   44.7990   30.0080 C   0  0  0  0  0  0  0  0  0  0  0  0
   59.3090   45.2960   35.0790 C   0  0  0  0  0  0  0  0  0  0  0  0
   58.9620   44.6230   32.5850 N   0  0  0  0  0  0  0  0  0  0  0  0
  1  4  1  0
  2  5  1  0
  2  3  1  0
  2  7  1  0
  3  1  1  0
  4  6  1  0
  7  4  1  0
M  END
$$$$

     RDKit          3D

 11 10  0  0  0  0  0  0  0  0999 V2000
   64.6060   42.4880   31.3450 C   0  0  0  0  0  0  0  0  0  0  0  0
   63.2790   41.7470   35.3930 N   0  0  0  0  0  0  0  0  0  0  0  0
   66.3870   43.0310   32.6910 O   0  0  0  0  0  0  0  0  0  0  0  0
   61.2720   43.0740   34.9580 O   0  0  0  0  0  0  0  0  0  0  0  0
   63.1340   42.3680   36.6290 O   0  0  0  0  0  0  0  0  0  0  0  0
   63.3090   42.6560   32.1120 C   0  0  0  0  0  0  0  0  0  0  0  0
   62.5650   42.4030   34.3810 C   0  0  0  0  0  0  0  0  0  0  0  0
   65.9080   42.1280   32.1480 C   0  0  0  0  0  0  0  0  0  0  0  0
   66.3640   41.1400   31.9490 O   0  0  0  0  0  0  0  0  0  0  0  0
   61.9040   42.3390   31.7340 C   0  0  0  0  0  0  0  0  0  0  0  0
   63.4670   43.1020   33.5210 C   0  0  0  0  0  0  0  0  0  0  0  0
  1  6  1  0
  1  8  1  0
  2  5  1  0
  6 10  1  0
  6 11  1  0
  7  4  1  0
  7  2  1  0
  8  3  1  0
  9  8  2  0
 11  7  1  0
M  END
$$$$

     RDKit          3D

 13 12  0  0  0  0  0  0  0  0999 V2000
   64.2820   43.9860   34.1110 C   0  0  0  0  0  0  0  0  0  0  0  0
   65.3800   43.7120   33.4750 C   0  0  0  0  0  0  0  0  0  0  0  0
   66.5630   41.4120   29.8510 C   0  0  0  0  0  0  0  0  0  0  0  0
   63.4240   44.3800   34.8760 C   0  0  0  0  0  0  0  0  0  0  0  0
   61.9340   46.0120   34.0760 O   0  0  0  0  0  0  0  0  0  0  0  0
   62.0230   44.8990   34.9540 C   0  0  0  0  0  0  0  0  0  0  0  0
   65.6310   42.5080   29.1280 C   0  0  0  0  0  0  0  0  0  0  0  0
   61.5170   44.9400   36.3570 C   0  0  0  0  0  0  0  0  0  0  0  0
   66.8850   41.5940   33.2810 O   0  0  0  0  0  0  0  0  0  0  0  0
   66.3540   42.0630   32.2220 C   0  0  0  0  0  0  0  0  0  0  0  0
   62.1130   46.1870   36.9420 O   0  0  0  0  0  0  0  0  0  0  0  0
   66.7450   41.5380   31.0200 O   0  0  0  0  0  0  0  0  0  0  0  0
   65.6490   43.2250   32.3200 O   0  0  0  0  0  0  0  0  0  0  0  0
  1  4  2  0
  2  1  2  0
  3 12  1  0
  4  6  1  0
  6  5  1  0
  6  8  1  0
  7  3  1  0
  8 11  1  0
 10 13  1  0
 10  9  2  0
 12 10  1  0
 13  2  1  0
M  END
$$$$

     RDKit          3D

  8  8  0  0  0  0  0  0  0  0999 V2000
   63.3240   39.5230   29.4870 C   0  0  0  0  0  0  0  0  0  0  0  0
   62.1030   40.0050   29.8390 C   0  0  0  0  0  0  0  0  0  0  0  0
   63.4400   43.4070   30.7270 N   0  0  0  0  0  0  0  0  0  0  0  0
   62.0410   41.3640   30.3040 C   0  0  0  0  0  0  0  0  0  0  0  0
   63.2420   42.1930   30.2440 C   0  0  0  0  0  0  0  0  0  0  0  0
   63.7030   38.4970   28.6020 O   0  0  0  0  0  0  0  0  0  0  0  0
   64.4030   41.5950   29.9700 C   0  0  0  0  0  0  0  0  0  0  0  0
   64.3900   40.2100   30.1000 C   0  0  0  0  0  0  0  0  0  0  0  0
  1  6  1  0
  1  2  1  0
  1  8  1  0
  2  4  2  0
  5  4  1  0
  5  3  2  0
  7  8  1  0
  7  5  1  0
M  END
$$$$

     RDKit          3D

  7  7  0  0  0  0  0  0  0  0999 V2000
   65.3930   41.0250   32.2990 C   0  0  0  0  0  0  0  0  0  0  0  0
   65.1540   41.0240   33.5910 C   0  0  0  0  0  0  0  0  0  0  0  0
   64.7810   41.3130   29.9570 C   0  0  0  0  0  0  0  0  0  0  0  0
   65.8300   42.1360   34.3640 O   0  0  0  0  0  0  0  0  0  0  0  0
   64.2190   39.8860   30.2470 C   0  0  0  0  0  0  0  0  0  0  0  0
   65.1940   42.1080   31.2100 C   0  0  0  0  0  0  0  0  0  0  0  0
   63.9050   42.4760   30.5570 C   0  0  0  0  0  0  0  0  0  0  0  0
  1  2  1  0
  2  4  1  0
  3  5  1  0
  3  7  1  0
  3  6  1  0
  6  1  1  0
  7  6  1  0
M  END
$$$$

     RDKit          3D

  7  8  0  0  0  0  0  0  0  0999 V2000
   63.9300   40.4940   32.4830 O   0  0  0  0  0  0  0  0  0  0  0  0
   63.0190   40.4430   35.7950 C   0  0  0  0  0  0  0  0  0  0  0  0
   63.6010   39.0570   35.7800 O   0  0  0  0  0  0  0  0  0  0  0  0
   63.9260   39.9540   34.7480 C   0  0  0  0  0  0  0  0  0  0  0  0
   63.5710   41.4560   37.2940 S   0  0  0  0  0  0  0  0  0  0  0  0
   63.9330   41.3980   35.0560 C   0  0  0  0  0  0  0  0  0  0  0  0
   63.5660   39.3540   33.2340 C   0  0  0  0  0  0  0  0  0  0  0  0
  1  7  1  0
  2  5  1  0
  3  2  1  0
  4  7  1  0
  4  6  1  0
  4  3  1  0
  4  2  1  0
  6  2  1  0
M  END
$$$$
