
     RDKit          3D

 10  9  0  0  0  0  0  0  0  0999 V2000
   58.2790   40.7380   37.7390 C   0  0  0  0  0  0  0  0  0  0  0  0
   61.9060   39.4330   38.7030 C   0  0  0  0  0  0  0  0  0  0  0  0
   63.2200   40.2130   38.8420 C   0  0  0  0  0  0  0  0  0  0  0  0
   65.6800   40.2340   39.6480 C   0  0  0  0  0  0  0  0  0  0  0  0
   58.0570   42.0050   38.6910 C   0  0  0  0  0  0  0  0  0  0  0  0
   64.9340   41.7690   39.9040 C   0  0  0  0  0  0  0  0  0  0  0  0
   64.3430   39.6170   39.4020 C   0  0  0  0  0  0  0  0  0  0  0  0
   60.8410   40.4370   38.3380 C   0  0  0  0  0  0  0  0  0  0  0  0
   58.1620   39.9210   36.3100 C   0  0  0  0  0  0  0  0  0  0  0  0
   59.5400   40.0830   38.4020 C   0  0  0  0  0  0  0  0  0  0  0  0
  1 10  1  0
  1  5  1  0
  2  3  1  0
  3  7  2  3
  4  6  1  0
  7  4  1  0
  8 10  2  3
  8  2  1  0
  9  1  1  0
M  END
$$$$

     RDKit          3D

 30 31  0  0  0  0  0  0  0  0999 V2000
   62.6390   39.9910   38.0240 C   0  0  0  0  0  0  0  0  0  0  0  0
   67.8300   38.8160   37.0690 C   0  0  0  0  0  0  0  0  0  0  0  0
   70.9620   36.0800   33.5700 C   0  0  0  0  0  0  0  0  0  0  0  0
   60.7570   41.0410   43.0170 C   0  0  0  0  0  0  0  0  0  0  0  0
   60.2680   39.2230   45.6670 P   0  0  0  0  0  0  0  0  0  0  0  0
   60.9420   40.7840   46.3020 O   0  0  0  0  0  0  0  0  0  0  0  0
   68.3030   37.3870   38.7230 O   0  0  0  0  0  0  0  0  0  0  0  0
   70.4820   37.0550   31.5720 C   0  0  0  0  0  0  0  0  0  0  0  0
   63.4100   40.2720   39.1620 C   0  0  0  0  0  0  0  0  0  0  0  0
   62.6970   40.8820   41.4930 C   0  0  0  0  0  0  0  0  0  0  0  0
   68.3060   37.7710   37.4240 C   0  0  0  0  0  0  0  0  0  0  0  0
   61.4270   38.3300   45.8790 O   0  0  0  0  0  0  0  0  0  0  0  0
   65.1080   39.4750   37.7990 C   0  0  0  0  0  0  0  0  0  0  0  0
   70.6080   33.3250   32.3690 C   0  0  0  0  0  0  0  0  0  0  0  0
   61.3870   41.3180   41.6730 C   0  0  0  0  0  0  0  0  0  0  0  0
   69.8860   37.0790   35.3040 C   0  0  0  0  0  0  0  0  0  0  0  0
   70.3490   34.5490   31.9820 C   0  0  0  0  0  0  0  0  0  0  0  0
   59.9680   40.1270   43.7610 C   0  0  0  0  0  0  0  0  0  0  0  0
   70.3230   36.5530   37.5250 O   0  0  0  0  0  0  0  0  0  0  0  0
   61.2510   39.6700   43.4290 O   0  0  0  0  0  0  0  0  0  0  0  0
   60.6390   40.6400   40.7370 O   0  0  0  0  0  0  0  0  0  0  0  0
   70.4270   35.5440   35.0300 C   0  0  0  0  0  0  0  0  0  0  0  0
   68.5150   39.5590   36.3620 O   0  0  0  0  0  0  0  0  0  0  0  0
   70.0580   35.8890   32.4790 C   0  0  0  0  0  0  0  0  0  0  0  0
   63.6630   39.2110   36.9330 S   0  0  0  0  0  0  0  0  0  0  0  0
   62.9760   40.2350   40.4220 N   0  0  0  0  0  0  0  0  0  0  0  0
   66.5220   39.1370   37.7320 N   0  0  0  0  0  0  0  0  0  0  0  0
   69.3070   37.0150   36.6480 C   0  0  0  0  0  0  0  0  0  0  0  0
   64.7640   40.1400   38.9550 C   0  0  0  0  0  0  0  0  0  0  0  0
   58.9550   38.6850   45.8460 O   0  0  0  0  0  0  0  0  0  0  0  0
  1  9  1  0
  2 11  1  0
  2 27  1  0
  3 22  1  0
  4 15  1  0
  4 20  1  0
  4 18  1  0
  5 30  2  0
  5 12  1  0
  5  6  1  0
  9 26  1  0
 10 15  1  0
 11  7  1  0
 13 27  1  0
 13 29  1  0
 15 21  1  0
 16 28  1  0
 17 14  2  0
 17 24  1  0
 18  5  1  0
 20 18  1  0
 22 16  1  0
 23  2  2  0
 24  8  1  0
 24  3  1  0
 25 13  1  0
 25  1  1  0
 26 10  1  0
 28 11  1  0
 28 19  1  0
 29  9  1  0
M  END
$$$$

     RDKit          3D

 18 18  0  0  0  0  0  0  0  0999 V2000
   64.3520   41.0430   41.2930 C   0  0  0  0  0  0  0  0  0  0  0  0
   60.9240   43.6130   43.5280 C   0  0  0  0  0  0  0  0  0  0  0  0
   67.2400   39.4660   36.9180 C   0  0  0  0  0  0  0  0  0  0  0  0
   62.5700   42.7630   41.9820 C   0  0  0  0  0  0  0  0  0  0  0  0
   63.5510   42.2130   41.3200 N   0  0  0  0  0  0  0  0  0  0  0  0
   62.4040   44.7030   41.3940 O   0  0  0  0  0  0  0  0  0  0  0  0
   65.4780   41.0520   40.3140 C   0  0  0  0  0  0  0  0  0  0  0  0
   62.1330   44.0100   41.5010 C   0  0  0  0  0  0  0  0  0  0  0  0
   65.0810   40.4630   38.9620 C   0  0  0  0  0  0  0  0  0  0  0  0
   70.5330   40.5670   38.0940 C   0  0  0  0  0  0  0  0  0  0  0  0
   66.7270   37.6570   37.6230 O   0  0  0  0  0  0  0  0  0  0  0  0
   65.7000   39.1840   38.7950 N   0  0  0  0  0  0  0  0  0  0  0  0
   62.0710   42.6870   43.1950 C   0  0  0  0  0  0  0  0  0  0  0  0
   68.3260   39.6600   37.4630 N   0  0  0  0  0  0  0  0  0  0  0  0
   60.6480   44.2620   42.1690 C   0  0  0  0  0  0  0  0  0  0  0  0
   66.4370   38.7580   37.7870 C   0  0  0  0  0  0  0  0  0  0  0  0
   69.4490   40.3290   37.3310 C   0  0  0  0  0  0  0  0  0  0  0  0
   69.8550   39.6890   36.0170 O   0  0  0  0  0  0  0  0  0  0  0  0
  1  5  2  3
  3 14  1  0
  3 16  1  0
  4  5  1  0
  4 13  1  0
  6  8  2  0
  7  1  1  0
  8  4  1  0
  8 15  1  0
  9  7  1  0
 11 16  2  0
 12  9  1  0
 13  2  1  0
 15  2  1  0
 16 12  1  0
 17 14  1  0
 17 10  1  0
 18 17  1  0
M  END
$$$$

     RDKit          3D

 18 20  0  0  0  0  0  0  0  0999 V2000
   65.5680   38.8950   35.0480 C   0  0  0  0  0  0  0  0  0  0  0  0
   65.3660   41.5310   38.7600 C   0  0  0  0  0  0  0  0  0  0  0  0
   69.8630   39.4410   36.0110 C   0  0  0  0  0  0  0  0  0  0  0  0
   64.9680   39.4490   36.2800 N   0  0  0  0  0  0  0  0  0  0  0  0
   68.8400   40.0260   37.0170 C   0  0  0  0  0  0  0  0  0  0  0  0
   66.7830   40.5650   40.4810 O   0  0  0  0  0  0  0  0  0  0  0  0
   64.0680   42.1060   38.9240 N   0  0  0  0  0  0  0  0  0  0  0  0
   64.6960   39.2960   38.8120 O   0  0  0  0  0  0  0  0  0  0  0  0
   67.3090   39.9170   36.5170 C   0  0  0  0  0  0  0  0  0  0  0  0
   66.0740   43.0380   40.5540 C   0  0  0  0  0  0  0  0  0  0  0  0
   68.2180   40.6170   40.7090 C   0  0  0  0  0  0  0  0  0  0  0  0
   66.1690   41.6270   40.0150 C   0  0  0  0  0  0  0  0  0  0  0  0
   69.0190   41.0470   39.4600 C   0  0  0  0  0  0  0  0  0  0  0  0
   70.4290   40.9930   38.8220 C   0  0  0  0  0  0  0  0  0  0  0  0
   69.3900   39.8870   38.5020 C   0  0  0  0  0  0  0  0  0  0  0  0
   67.0420   39.0040   35.2940 C   0  0  0  0  0  0  0  0  0  0  0  0
   65.4260   40.5170   38.0810 C   0  0  0  0  0  0  0  0  0  0  0  0
   65.8930   39.9370   37.0570 C   0  0  0  0  0  0  0  0  0  0  0  0
  1 16  1  0
  1  4  1  0
  2  7  1  0
  2 12  1  0
  5  3  1  0
  5 15  1  0
  6 11  1  0
  9 16  1  0
  9  5  1  0
  9 18  1  0
 12  6  1  0
 12 10  1  0
 13 14  1  0
 13 11  1  0
 15 14  1  0
 15 13  1  0
 17  2  1  0
 17  8  1  0
 18  4  1  0
 18 17  1  0
M  END
$$$$

     RDKit          3D

 21 23  0  0  0  0  0  0  0  0999 V2000
   67.9260   39.7490   38.6710 O   0  0  0  0  0  0  0  0  0  0  0  0
   67.9570   36.5480   33.4130 C   0  0  0  0  0  0  0  0  0  0  0  0
   65.3610   44.5940   38.9350 C   0  0  0  0  0  0  0  0  0  0  0  0
   67.1390   42.5180   39.1390 C   0  0  0  0  0  0  0  0  0  0  0  0
   68.3490   34.6080   34.4230 O   0  0  0  0  0  0  0  0  0  0  0  0
   66.7280   39.9350   36.7600 N   0  0  0  0  0  0  0  0  0  0  0  0
   67.5140   36.2840   35.9480 O   0  0  0  0  0  0  0  0  0  0  0  0
   68.5710   35.8680   34.7990 S   0  0  0  0  0  0  0  0  0  0  0  0
   67.9120   37.4550   36.6760 C   0  0  0  0  0  0  0  0  0  0  0  0
   66.8370   43.3970   40.0050 C   0  0  0  0  0  0  0  0  0  0  0  0
   67.8660   39.1460   34.9380 C   0  0  0  0  0  0  0  0  0  0  0  0
   65.4950   43.9150   37.8860 C   0  0  0  0  0  0  0  0  0  0  0  0
   66.5660   41.8070   38.1670 C   0  0  0  0  0  0  0  0  0  0  0  0
   67.0400   40.4340   37.9050 C   0  0  0  0  0  0  0  0  0  0  0  0
   69.3200   37.7940   36.2400 C   0  0  0  0  0  0  0  0  0  0  0  0
   65.4940   42.5410   37.6770 C   0  0  0  0  0  0  0  0  0  0  0  0
   67.0340   38.6410   36.1470 C   0  0  0  0  0  0  0  0  0  0  0  0
   69.8650   36.5400   35.5740 C   0  0  0  0  0  0  0  0  0  0  0  0
   64.8030   41.5290   36.6460 C   0  0  0  0  0  0  0  0  0  0  0  0
   69.2220   38.7750   35.1100 C   0  0  0  0  0  0  0  0  0  0  0  0
   65.7820   40.6840   36.0880 C   0  0  0  0  0  0  0  0  0  0  0  0
  4 10  2  0
  5  8  1  0
  6 14  1  0
  8  2  1  0
  8 18  1  0
  8  7  1  0
  9  7  1  0
 11 20  1  0
 12  3  2  0
 13  4  1  0
 14 13  1  0
 14  1  2  0
 15 20  1  0
 15  9  1  0
 16 12  1  0
 16 13  1  0
 17 11  1  0
 17  9  1  0
 17  6  1  0
 18 15  1  0
 19 16  1  0
 21 19  1  0
 21  6  1  0
M  END
$$$$

     RDKit          3D

 21 22  0  0  0  0  0  0  0  0999 V2000
   65.1620   42.6090   39.3340 C   0  0  0  0  0  0  0  0  0  0  0  0
   66.5920   32.3780   33.6790 P   0  0  0  0  0  0  0  0  0  0  0  0
   66.0400   35.0400   34.6370 C   0  0  0  0  0  0  0  0  0  0  0  0
   65.7510   41.3460   38.6850 C   0  0  0  0  0  0  0  0  0  0  0  0
   66.3720   37.2690   35.6460 N   0  0  0  0  0  0  0  0  0  0  0  0
   65.2560   32.0020   33.4920 O   0  0  0  0  0  0  0  0  0  0  0  0
   63.3470   41.0310   38.6940 C   0  0  0  0  0  0  0  0  0  0  0  0
   64.8200   42.9250   40.7700 C   0  0  0  0  0  0  0  0  0  0  0  0
   65.8630   40.2550   37.6980 C   0  0  0  0  0  0  0  0  0  0  0  0
   66.6580   34.0780   33.7950 C   0  0  0  0  0  0  0  0  0  0  0  0
   65.1750   37.9030   35.6110 C   0  0  0  0  0  0  0  0  0  0  0  0
   66.8250   36.3550   34.7490 C   0  0  0  0  0  0  0  0  0  0  0  0
   63.3880   39.8800   37.9090 C   0  0  0  0  0  0  0  0  0  0  0  0
   64.4320   41.6990   38.8450 N   0  0  0  0  0  0  0  0  0  0  0  0
   67.5230   31.5540   32.8280 O   0  0  0  0  0  0  0  0  0  0  0  0
   62.1760   39.2380   37.8120 C   0  0  0  0  0  0  0  0  0  0  0  0
   65.4720   43.7150   38.3730 O   0  0  0  0  0  0  0  0  0  0  0  0
   67.6920   36.7040   33.9560 O   0  0  0  0  0  0  0  0  0  0  0  0
   67.1080   31.8380   34.8720 O   0  0  0  0  0  0  0  0  0  0  0  0
   64.8340   38.6980   36.5200 O   0  0  0  0  0  0  0  0  0  0  0  0
   64.6270   39.6410   37.3490 C   0  0  0  0  0  0  0  0  0  0  0  0
  1  8  1  0
  2 10  1  0
  2 19  1  0
  3 12  1  0
  4  9  1  0
  4 14  1  0
  4  1  1  0
  6  2  1  0
 10  3  1  0
 11  5  2  3
 11 20  1  0
 12  5  1  0
 13  7  1  0
 14  7  1  0
 14  1  1  0
 15  2  2  0
 16 13  1  0
 17  1  1  0
 18 12  2  0
 20 21  1  0
 21  9  1  0
 21 13  2  0
M  END
$$$$

     RDKit          3D

 10 10  0  0  0  0  0  0  0  0999 V2000
   64.2090   38.6000   36.3500 C   0  0  0  0  0  0  0  0  0  0  0  0
   60.8120   39.0170   38.2640 O   0  0  0  0  0  0  0  0  0  0  0  0
   62.3300   38.5380   38.1930 P   0  0  0  0  0  0  0  0  0  0  0  0
   66.2200   39.9290   37.5510 C   0  0  0  0  0  0  0  0  0  0  0  0
   63.1750   37.5960   36.0920 C   0  0  0  0  0  0  0  0  0  0  0  0
   63.3480   36.8170   34.8010 C   0  0  0  0  0  0  0  0  0  0  0  0
   64.5190   40.4100   37.8390 O   0  0  0  0  0  0  0  0  0  0  0  0
   63.9060   39.1880   37.7240 C   0  0  0  0  0  0  0  0  0  0  0  0
   62.6630   38.5300   39.7410 O   0  0  0  0  0  0  0  0  0  0  0  0
   62.2350   37.4540   36.9340 N   0  0  0  0  0  0  0  0  0  0  0  0
  1  8  1  0
  3  2  2  0
  3  9  1  0
  4  7  1  0
  5  1  1  0
  5 10  2  0
  6  5  1  0
  8  7  1  0
  8  3  1  0
 10  3  1  0
M  END
$$$$

     RDKit          3D

 23 24  0  0  0  0  0  0  0  0999 V2000
   68.3930   39.0680   39.6480 N   0  0  0  0  0  0  0  0  0  0  0  0
   67.8510   39.8550   37.8000 C   0  0  0  0  0  0  0  0  0  0  0  0
   68.4090   38.9330   43.3890 C   0  0  0  0  0  0  0  0  0  0  0  0
   66.3430   39.7480   35.8060 C   0  0  0  0  0  0  0  0  0  0  0  0
   62.0240   38.1180   35.8230 C   0  0  0  0  0  0  0  0  0  0  0  0
   65.4380   40.0560   37.6840 C   0  0  0  0  0  0  0  0  0  0  0  0
   66.6110   39.4280   37.1650 C   0  0  0  0  0  0  0  0  0  0  0  0
   67.1800   39.0120   35.0520 C   0  0  0  0  0  0  0  0  0  0  0  0
   64.0890   39.2870   37.0120 C   0  0  0  0  0  0  0  0  0  0  0  0
   63.2840   38.7530   35.9210 C   0  0  0  0  0  0  0  0  0  0  0  0
   71.2700   37.9080   40.6860 C   0  0  0  0  0  0  0  0  0  0  0  0
   60.3020   36.9730   37.2740 C   0  0  0  0  0  0  0  0  0  0  0  0
   67.2150   41.2780   39.3000 O   0  0  0  0  0  0  0  0  0  0  0  0
   64.2190   38.0740   36.8630 O   0  0  0  0  0  0  0  0  0  0  0  0
   69.1330   39.0620   37.0160 C   0  0  0  0  0  0  0  0  0  0  0  0
   69.6400   38.1760   40.0670 S   0  0  0  0  0  0  0  0  0  0  0  0
   69.2980   36.9080   39.5580 O   0  0  0  0  0  0  0  0  0  0  0  0
   68.1400   40.5370   41.6700 C   0  0  0  0  0  0  0  0  0  0  0  0
   68.2550   39.3150   41.9460 C   0  0  0  0  0  0  0  0  0  0  0  0
   68.9870   38.2590   42.1580 C   0  0  0  0  0  0  0  0  0  0  0  0
   61.3730   37.9450   36.9850 N   0  0  0  0  0  0  0  0  0  0  0  0
   67.6990   40.1340   39.1190 C   0  0  0  0  0  0  0  0  0  0  0  0
   61.3320   38.9770   37.8350 C   0  0  0  0  0  0  0  0  0  0  0  0
  1 16  1  0
  2 15  1  0
  2 22  1  0
  5 21  1  0
  7  4  1  0
  7  6  1  0
  7  2  1  0
  8  4  1  0
  9  6  1  0
 10  5  1  0
 10 14  1  0
 10  9  1  0
 14  9  1  0
 16 11  1  0
 17 16  1  0
 19 18  1  0
 19 20  1  0
 19  3  1  0
 20 16  1  0
 20  3  1  0
 21 12  1  0
 21 23  1  0
 22 13  2  0
 22  1  1  0
M  END
$$$$

     RDKit          3D

  9  9  0  0  0  0  0  0  0  0999 V2000
   67.3750   42.3190   34.2170 O   0  0  0  0  0  0  0  0  0  0  0  0
   67.3010   43.6710   36.3520 C   0  0  0  0  0  0  0  0  0  0  0  0
   68.5650   39.9160   36.9220 O   0  0  0  0  0  0  0  0  0  0  0  0
   67.6170   41.5190   35.4250 C   0  0  0  0  0  0  0  0  0  0  0  0
   68.1500   40.1500   35.6230 C   0  0  0  0  0  0  0  0  0  0  0  0
   66.5250   43.3480   34.8180 C   0  0  0  0  0  0  0  0  0  0  0  0
   68.7970   38.0390   34.6840 O   0  0  0  0  0  0  0  0  0  0  0  0
   68.3510   42.6140   36.2120 C   0  0  0  0  0  0  0  0  0  0  0  0
   67.8190   38.9700   35.0060 N   0  0  0  0  0  0  0  0  0  0  0  0
  1  6  1  0
  1  4  1  0
  4  5  1  0
  4  8  1  0
  5  3  2  0
  6  2  1  0
  7  9  1  0
  8  2  1  0
  9  5  1  0
M  END
$$$$

     RDKit          3D

  6  5  0  0  0  0  0  0  0  0999 V2000
   67.5870   41.6790   35.8200 N   0  0  0  0  0  0  0  0  0  0  0  0
   67.9620   36.8470   36.2010 C   0  0  0  0  0  0  0  0  0  0  0  0
   68.2840   38.3610   36.2320 C   0  0  0  0  0  0  0  0  0  0  0  0
   68.4160   36.1640   35.0420 C   0  0  0  0  0  0  0  0  0  0  0  0
   67.0240   39.2070   36.0790 C   0  0  0  0  0  0  0  0  0  0  0  0
   67.1050   40.5760   35.9300 O   0  0  0  0  0  0  0  0  0  0  0  0
  1  6  1  0
  2  3  1  0
  4  2  1  0
  5  3  1  0
  6  5  1  0
M  END
$$$$

     RDKit          3D

 14 15  0  0  0  0  0  0  0  0999 V2000
   62.6470   40.5980   40.0960 C   0  0  0  0  0  0  0  0  0  0  0  0
   63.5940   41.2460   39.0750 C   0  0  0  0  0  0  0  0  0  0  0  0
   62.7800   42.3730   38.3520 C   0  0  0  0  0  0  0  0  0  0  0  0
   68.9510   39.5810   37.4580 C   0  0  0  0  0  0  0  0  0  0  0  0
   61.5530   39.9480   39.4440 O   0  0  0  0  0  0  0  0  0  0  0  0
   65.8830   40.3380   38.6970 C   0  0  0  0  0  0  0  0  0  0  0  0
   70.3370   39.9120   39.4490 C   0  0  0  0  0  0  0  0  0  0  0  0
   64.4400   40.1730   38.3280 C   0  0  0  0  0  0  0  0  0  0  0  0
   66.2780   40.6820   40.0100 N   0  0  0  0  0  0  0  0  0  0  0  0
   68.1560   40.1710   38.3170 N   0  0  0  0  0  0  0  0  0  0  0  0
   69.2460   40.6470   38.4860 C   0  0  0  0  0  0  0  0  0  0  0  0
   66.8690   40.5310   37.6150 C   0  0  0  0  0  0  0  0  0  0  0  0
   62.0760   41.3020   41.1240 O   0  0  0  0  0  0  0  0  0  0  0  0
   70.1190   38.7740   38.6250 C   0  0  0  0  0  0  0  0  0  0  0  0
  1 13  1  0
  2  3  1  0
  2  1  1  0
  4 10  1  0
  4 11  1  0
  4 14  1  0
  5  1  1  0
  6  9  1  0
  8  6  1  0
  8  2  1  0
 10 11  1  0
 11  7  1  0
 12 10  1  0
 12  6  1  0
 14  7  1  0
M  END
$$$$

     RDKit          3D

 11 10  0  0  0  0  0  0  0  0999 V2000
   67.3110   39.8020   38.2480 C   0  0  0  0  0  0  0  0  0  0  0  0
   65.4360   41.7570   41.0840 C   0  0  0  0  0  0  0  0  0  0  0  0
   65.5950   41.2870   42.2880 O   0  0  0  0  0  0  0  0  0  0  0  0
   63.3080   42.2750   40.0240 C   0  0  0  0  0  0  0  0  0  0  0  0
   64.4830   42.5530   40.7460 N   0  0  0  0  0  0  0  0  0  0  0  0
   68.8350   37.3260   38.0770 S   0  0  0  0  0  0  0  0  0  0  0  0
   68.6510   39.1170   38.5520 C   0  0  0  0  0  0  0  0  0  0  0  0
   66.7010   39.8390   39.8350 C   0  0  0  0  0  0  0  0  0  0  0  0
   67.2040   40.8990   37.3030 O   0  0  0  0  0  0  0  0  0  0  0  0
   69.9030   40.1560   39.4110 S   0  0  0  0  0  0  0  0  0  0  0  0
   66.5600   41.4620   40.0510 C   0  0  0  0  0  0  0  0  0  0  0  0
  1  9  1  0
  1  7  1  0
  1  8  1  0
  2  3  2  0
  4  5  1  0
  5  2  1  0
  6  7  2  0
  7 10  1  0
  8 11  1  0
 11  2  1  0
M  END
$$$$

     RDKit          3D

  7  6  0  0  0  0  0  0  0  0999 V2000
   69.2510   36.6840   34.2190 C   0  0  0  0  0  0  0  0  0  0  0  0
   67.8410   36.2130   35.6010 O   0  0  0  0  0  0  0  0  0  0  0  0
   70.3520   35.5710   35.1340 O   0  0  0  0  0  0  0  0  0  0  0  0
   67.0540   38.8820   35.9990 O   0  0  0  0  0  0  0  0  0  0  0  0
   69.1150   37.7460   33.0100 C   0  0  0  0  0  0  0  0  0  0  0  0
   68.6720   37.3650   35.3420 C   0  0  0  0  0  0  0  0  0  0  0  0
   68.1060   38.4610   35.0870 C   0  0  0  0  0  0  0  0  0  0  0  0
  1  5  1  0
  1  3  1  0
  1  6  1  0
  6  2  1  0
  7  6  1  0
  7  4  1  0
M  END
$$$$

     RDKit          3D

 14 13  0  0  0  0  0  0  0  0999 V2000
   70.1200   39.7630   36.8270 P   0  0  0  0  0  0  0  0  0  0  0  0
   65.6840   40.3780   41.1590 C   0  0  0  0  0  0  0  0  0  0  0  0
   67.8990   39.6800   39.9330 O   0  0  0  0  0  0  0  0  0  0  0  0
   71.4460   40.3290   37.6870 C   0  0  0  0  0  0  0  0  0  0  0  0
   67.0680   40.6720   39.7780 N   0  0  0  0  0  0  0  0  0  0  0  0
   64.5420   40.9380   39.2670 C   0  0  0  0  0  0  0  0  0  0  0  0
   68.8420   40.1390   37.7400 O   0  0  0  0  0  0  0  0  0  0  0  0
   65.7610   40.6710   40.1400 C   0  0  0  0  0  0  0  0  0  0  0  0
   69.7070   38.2790   36.4190 O   0  0  0  0  0  0  0  0  0  0  0  0
   69.0240   42.5390   37.5600 O   0  0  0  0  0  0  0  0  0  0  0  0
   68.5240   41.3830   37.8710 C   0  0  0  0  0  0  0  0  0  0  0  0
   66.3450   41.8340   37.7280 O   0  0  0  0  0  0  0  0  0  0  0  0
   70.4060   40.6910   35.6590 O   0  0  0  0  0  0  0  0  0  0  0  0
   67.3130   41.6280   38.6760 C   0  0  0  0  0  0  0  0  0  0  0  0
  1  4  1  0
  1  7  1  0
  5  3  1  0
  5  8  1  0
  6  8  1  0
  7 11  1  0
  8  2  2  0
  9  1  1  0
 10 11  2  0
 11 14  1  0
 13  1  2  0
 14 12  1  0
 14  5  1  0
M  END
$$$$

     RDKit          3D

 12 12  0  0  0  0  0  0  0  0999 V2000
   62.6310   43.0230   42.4700 O   0  0  0  0  0  0  0  0  0  0  0  0
   65.0450   40.7400   41.1170 C   0  0  0  0  0  0  0  0  0  0  0  0
   67.2090   38.3610   37.8860 O   0  0  0  0  0  0  0  0  0  0  0  0
   63.3080   42.0640   42.2050 C   0  0  0  0  0  0  0  0  0  0  0  0
   65.6110   40.6700   39.8370 C   0  0  0  0  0  0  0  0  0  0  0  0
   67.3980   39.2660   38.9460 C   0  0  0  0  0  0  0  0  0  0  0  0
   66.2100   41.0440   37.7570 C   0  0  0  0  0  0  0  0  0  0  0  0
   66.2640   41.2290   41.0100 O   0  0  0  0  0  0  0  0  0  0  0  0
   64.0480   41.8480   41.1910 C   0  0  0  0  0  0  0  0  0  0  0  0
   66.3350   40.3080   39.0480 C   0  0  0  0  0  0  0  0  0  0  0  0
   63.9440   41.4630   43.4130 N   0  0  0  0  0  0  0  0  0  0  0  0
   62.9320   40.5600   43.8720 C   0  0  0  0  0  0  0  0  0  0  0  0
  2  9  1  0
  3  6  1  0
  4  1  2  0
  4 11  1  0
  5 10  1  0
  5  8  1  0
  5  2  1  0
  6 10  1  0
  8  2  1  0
  9  4  1  0
 10  7  1  0
 11 12  1  0
M  END
$$$$

     RDKit          3D

 13 12  0  0  0  0  0  0  0  0999 V2000
   68.1950   39.0560   36.0060 C   0  0  0  0  0  0  0  0  0  0  0  0
   61.1230   37.6980   37.5810 O   0  0  0  0  0  0  0  0  0  0  0  0
   64.8480   40.3670   38.8300 C   0  0  0  0  0  0  0  0  0  0  0  0
   66.7250   39.4260   36.9640 S   0  0  0  0  0  0  0  0  0  0  0  0
   62.6540   39.5520   37.6310 C   0  0  0  0  0  0  0  0  0  0  0  0
   63.8640   39.1850   38.5180 C   0  0  0  0  0  0  0  0  0  0  0  0
   61.4410   38.6790   37.7880 C   0  0  0  0  0  0  0  0  0  0  0  0
   67.2560   39.8380   38.3090 C   0  0  0  0  0  0  0  0  0  0  0  0
   66.2900   40.3930   39.3650 C   0  0  0  0  0  0  0  0  0  0  0  0
   64.4640   42.7150   39.2080 O   0  0  0  0  0  0  0  0  0  0  0  0
   60.5070   38.9610   38.4660 O   0  0  0  0  0  0  0  0  0  0  0  0
   63.4580   41.4970   40.3840 O   0  0  0  0  0  0  0  0  0  0  0  0
   64.1350   41.5550   39.4450 C   0  0  0  0  0  0  0  0  0  0  0  0
  1  4  1  0
  2  7  2  0
  3  6  1  0
  3  9  1  0
  3 13  1  0
  4  8  1  0
  5  7  1  0
  5  6  1  0
  7 11  1  0
  8  9  1  0
 10 13  2  0
 13 12  1  0
M  END
$$$$

     RDKit          3D

  8  9  0  0  0  0  0  0  0  0999 V2000
   66.8140   39.6900   35.1610 O   0  0  0  0  0  0  0  0  0  0  0  0
   68.8020   39.4750   36.1230 C   0  0  0  0  0  0  0  0  0  0  0  0
   67.6990   41.6420   36.5740 C   0  0  0  0  0  0  0  0  0  0  0  0
   68.1380   38.5620   37.1680 C   0  0  0  0  0  0  0  0  0  0  0  0
   67.6200   40.3100   36.2150 C   0  0  0  0  0  0  0  0  0  0  0  0
   69.6000   39.3970   34.8380 C   0  0  0  0  0  0  0  0  0  0  0  0
   67.1140   39.3180   38.0200 C   0  0  0  0  0  0  0  0  0  0  0  0
   67.0320   40.7970   37.4960 C   0  0  0  0  0  0  0  0  0  0  0  0
  2  6  1  0
  2  5  1  0
  2  4  1  0
  4  7  1  0
  5  1  1  0
  5  3  1  0
  5  8  1  0
  8  3  1  0
  8  7  1  0
M  END
$$$$

     RDKit          3D

  9  9  0  0  0  0  0  0  0  0999 V2000
   69.8940   38.0000   37.1290 C   0  0  0  0  0  0  0  0  0  0  0  0
   70.7420   36.4740   35.5780 O   0  0  0  0  0  0  0  0  0  0  0  0
   68.9860   38.9310   37.5970 C   0  0  0  0  0  0  0  0  0  0  0  0
   66.7820   40.4470   36.8040 C   0  0  0  0  0  0  0  0  0  0  0  0
   68.1120   39.2020   35.3260 C   0  0  0  0  0  0  0  0  0  0  0  0
   68.8220   38.0340   34.9090 C   0  0  0  0  0  0  0  0  0  0  0  0
   69.7690   37.3340   35.9740 C   0  0  0  0  0  0  0  0  0  0  0  0
   67.8290   39.3500   36.7710 C   0  0  0  0  0  0  0  0  0  0  0  0
   66.6450   41.5690   36.3630 N   0  0  0  0  0  0  0  0  0  0  0  0
  1  3  1  0
  2  7  1  0
  5  8  1  0
  6  5  2  0
  6  7  1  0
  7  1  2  0
  8  4  1  0
  8  3  2  0
  9  4  2  0
M  END
$$$$

     RDKit          3D

 20 21  0  0  0  0  0  0  0  0999 V2000
   65.3020   40.1060   39.8280 C   0  0  0  0  0  0  0  0  0  0  0  0
   68.1530   40.2480   38.0810 C   0  0  0  0  0  0  0  0  0  0  0  0
   60.1720   40.3430   41.2840 C   0  0  0  0  0  0  0  0  0  0  0  0
   64.7950   40.9750   40.9420 C   0  0  0  0  0  0  0  0  0  0  0  0
   62.4870   40.4800   40.5290 C   0  0  0  0  0  0  0  0  0  0  0  0
   69.0750   40.9830   35.7940 C   0  0  0  0  0  0  0  0  0  0  0  0
   67.3920   41.4190   39.8590 C   0  0  0  0  0  0  0  0  0  0  0  0
   68.2550   41.4750   38.5880 C   0  0  0  0  0  0  0  0  0  0  0  0
   63.4580   41.2520   40.9820 O   0  0  0  0  0  0  0  0  0  0  0  0
   65.4350   41.5990   41.7610 O   0  0  0  0  0  0  0  0  0  0  0  0
   60.6780   38.2010   37.8890 S   0  0  0  0  0  0  0  0  0  0  0  0
   60.9190   39.2260   39.3210 C   0  0  0  0  0  0  0  0  0  0  0  0
   59.9590   39.4910   40.1830 C   0  0  0  0  0  0  0  0  0  0  0  0
   68.8130   40.0450   36.8200 O   0  0  0  0  0  0  0  0  0  0  0  0
   61.4260   40.7710   41.5000 C   0  0  0  0  0  0  0  0  0  0  0  0
   62.2030   39.8020   39.4080 C   0  0  0  0  0  0  0  0  0  0  0  0
   58.4170   38.9130   40.0910 Cl  0  0  0  0  0  0  0  0  0  0  0  0
   67.4590   39.3360   38.9210 C   0  0  0  0  0  0  0  0  0  0  0  0
   64.7720   39.1550   38.9280 O   0  0  0  0  0  0  0  0  0  0  0  0
   66.5590   40.2710   39.5700 N   0  0  0  0  0  0  0  0  0  0  0  0
  1  4  1  0
  2 14  1  0
  2  8  1  0
  2 18  1  0
  3 15  1  0
  4  9  1  0
  4 10  2  0
  5  9  1  0
  5 15  2  0
  6 14  1  0
  8  7  1  0
 11 12  1  0
 12 16  2  0
 12 13  1  0
 13  3  2  0
 16  5  1  0
 17 13  1  0
 18 20  1  0
 19  1  2  0
 20  1  1  0
 20  7  1  0
M  END
$$$$

     RDKit          3D

 20 19  0  0  0  0  0  0  0  0999 V2000
   64.8400   41.8690   38.5050 C   0  0  0  0  0  0  0  0  0  0  0  0
   63.5730   40.4000   41.8080 C   0  0  0  0  0  0  0  0  0  0  0  0
   69.3340   36.3570   37.8700 C   0  0  0  0  0  0  0  0  0  0  0  0
   64.4820   41.7450   39.8550 O   0  0  0  0  0  0  0  0  0  0  0  0
   67.3320   42.5110   39.2280 C   0  0  0  0  0  0  0  0  0  0  0  0
   67.9390   40.7620   37.7470 O   0  0  0  0  0  0  0  0  0  0  0  0
   67.4890   38.1870   37.1090 O   0  0  0  0  0  0  0  0  0  0  0  0
   68.6850   38.6440   37.0100 C   0  0  0  0  0  0  0  0  0  0  0  0
   62.2820   42.3740   40.7190 C   0  0  0  0  0  0  0  0  0  0  0  0
   69.8260   37.7100   37.4140 C   0  0  0  0  0  0  0  0  0  0  0  0
   71.7840   36.1460   36.4560 S   0  0  0  0  0  0  0  0  0  0  0  0
   68.3960   36.3940   38.5640 O   0  0  0  0  0  0  0  0  0  0  0  0
   70.3720   40.6150   37.2260 C   0  0  0  0  0  0  0  0  0  0  0  0
   62.7850   40.0660   39.3810 C   0  0  0  0  0  0  0  0  0  0  0  0
   67.2320   41.0110   38.8270 C   0  0  0  0  0  0  0  0  0  0  0  0
   70.5850   34.6400   35.7990 C   0  0  0  0  0  0  0  0  0  0  0  0
   66.0350   43.0140   38.7960 C   0  0  0  0  0  0  0  0  0  0  0  0
   70.7150   37.4920   36.2650 C   0  0  0  0  0  0  0  0  0  0  0  0
   63.2200   41.0980   40.2710 S   0  0  0  0  0  0  0  0  0  0  0  0
   69.0830   39.9670   37.5280 C   0  0  0  0  0  0  0  0  0  0  0  0
  1 17  1  0
  1  4  1  0
  3 12  1  0
  4 19  1  0
  6 15  1  0
  8  7  1  0
  8 10  1  0
  8 20  1  0
 10 18  1  0
 10  3  1  0
 14 19  1  0
 15  5  1  0
 16 11  1  0
 17  5  1  0
 18 11  1  0
 19  9  1  0
 19  2  1  0
 20 13  1  0
 20  6  1  0
M  END
$$$$
