
     RDKit          3D

 12 11  0  0  0  0  0  0  0  0999 V2000
   72.5800   44.7800   45.2330 O   0  0  0  0  0  0  0  0  0  0  0  0
   71.5580   42.6520   44.5840 C   0  0  0  0  0  0  0  0  0  0  0  0
   73.4730   40.4680   42.1970 C   0  0  0  0  0  0  0  0  0  0  0  0
   71.8160   44.0920   44.2170 C   0  0  0  0  0  0  0  0  0  0  0  0
   69.9210   45.3500   44.8660 O   0  0  0  0  0  0  0  0  0  0  0  0
   70.6880   44.8200   43.8200 C   0  0  0  0  0  0  0  0  0  0  0  0
   70.0760   41.6990   43.1060 O   0  0  0  0  0  0  0  0  0  0  0  0
   72.5750   41.7850   44.4110 N   0  0  0  0  0  0  0  0  0  0  0  0
   69.9790   44.6990   42.7010 O   0  0  0  0  0  0  0  0  0  0  0  0
   74.4800   40.7890   44.5960 C   0  0  0  0  0  0  0  0  0  0  0  0
   73.0950   40.6160   43.6160 C   0  0  0  0  0  0  0  0  0  0  0  0
   70.1670   42.2450   44.3760 C   0  0  0  0  0  0  0  0  0  0  0  0
  2 12  1  0
  3 11  1  0
  4  2  1  0
  4  1  1  0
  6  4  1  0
  6  5  1  0
  7 12  1  0
  8  2  1  0
  9  6  2  0
 11  8  1  0
 11 10  1  0
M  END
$$$$

     RDKit          3D

 19 20  0  0  0  0  0  0  0  0999 V2000
   68.9690   39.0310   45.5730 N   0  0  0  0  0  0  0  0  0  0  0  0
   71.8220   45.3870   42.7650 C   0  0  0  0  0  0  0  0  0  0  0  0
   70.0170   43.7960   45.0550 O   0  0  0  0  0  0  0  0  0  0  0  0
   70.1120   40.9770   44.1950 C   0  0  0  0  0  0  0  0  0  0  0  0
   72.1170   39.7890   43.9630 O   0  0  0  0  0  0  0  0  0  0  0  0
   71.4950   41.0840   43.7120 C   0  0  0  0  0  0  0  0  0  0  0  0
   70.0490   44.2700   44.0270 C   0  0  0  0  0  0  0  0  0  0  0  0
   71.3140   38.9360   44.8630 C   0  0  0  0  0  0  0  0  0  0  0  0
   67.7990   41.5840   46.2720 C   0  0  0  0  0  0  0  0  0  0  0  0
   73.0070   44.6340   43.4460 F   0  0  0  0  0  0  0  0  0  0  0  0
   66.9210   40.8530   46.5530 O   0  0  0  0  0  0  0  0  0  0  0  0
   69.2570   41.9200   44.1930 C   0  0  0  0  0  0  0  0  0  0  0  0
   70.7020   45.1740   43.3910 N   0  0  0  0  0  0  0  0  0  0  0  0
   70.0890   39.8230   45.2030 C   0  0  0  0  0  0  0  0  0  0  0  0
   70.9320   37.7190   44.2910 O   0  0  0  0  0  0  0  0  0  0  0  0
   67.7130   41.9750   47.3740 O   0  0  0  0  0  0  0  0  0  0  0  0
   68.3910   41.5870   44.9480 C   0  0  0  0  0  0  0  0  0  0  0  0
   69.3370   43.1140   43.3640 C   0  0  0  0  0  0  0  0  0  0  0  0
   72.4440   46.6170   42.7180 F   0  0  0  0  0  0  0  0  0  0  0  0
  2 13  1  0
  2 10  1  0
  4 12  1  0
  4 14  1  0
  5  8  1  0
  6  5  1  0
  6  4  1  0
  7  3  2  0
  8 15  1  0
  8 14  1  0
  9 11  1  0
  9 16  1  0
 11 16  1  0
 12 18  1  0
 12 17  1  0
 13  7  1  0
 14  1  1  0
 17  9  2  3
 18  7  1  0
 19  2  1  0
M  END
$$$$

     RDKit          3D

  7  6  0  0  0  0  0  0  0  0999 V2000
   72.7880   43.1940   43.8850 C   0  0  0  0  0  0  0  0  0  0  0  0
   71.6410   42.8110   44.8280 C   0  0  0  0  0  0  0  0  0  0  0  0
   74.0340   42.4170   43.5120 C   0  0  0  0  0  0  0  0  0  0  0  0
   70.4580   43.4740   44.0470 C   0  0  0  0  0  0  0  0  0  0  0  0
   74.8890   42.0860   45.7850 S   0  0  0  0  0  0  0  0  0  0  0  0
   73.3580   40.6950   43.7270 O   0  0  0  0  0  0  0  0  0  0  0  0
   74.5730   41.3050   43.9190 C   0  0  0  0  0  0  0  0  0  0  0  0
  1  2  1  0
  3  1  2  3
  3  7  1  0
  4  2  1  0
  7  6  1  0
  7  5  1  0
M  END
$$$$

     RDKit          3D

 27 26  0  0  0  0  0  0  0  0999 V2000
   66.3350   42.3420   45.9240 C   0  0  0  0  0  0  0  0  0  0  0  0
   71.6120   46.8750   43.1110 O   0  0  0  0  0  0  0  0  0  0  0  0
   61.2240   42.0920   52.7490 O   0  0  0  0  0  0  0  0  0  0  0  0
   61.3510   41.4640   50.4890 C   0  0  0  0  0  0  0  0  0  0  0  0
   68.7060   42.3040   45.4220 C   0  0  0  0  0  0  0  0  0  0  0  0
   75.1300   44.0590   44.5540 C   0  0  0  0  0  0  0  0  0  0  0  0
   70.8600   42.1310   44.4440 C   0  0  0  0  0  0  0  0  0  0  0  0
   72.9090   47.2120   42.6500 C   0  0  0  0  0  0  0  0  0  0  0  0
   69.9930   42.4660   45.5920 N   0  0  0  0  0  0  0  0  0  0  0  0
   67.6710   42.9280   46.3370 C   0  0  0  0  0  0  0  0  0  0  0  0
   65.5480   41.9530   47.0980 C   0  0  0  0  0  0  0  0  0  0  0  0
   59.9030   40.2490   52.2740 C   0  0  0  0  0  0  0  0  0  0  0  0
   73.3670   45.3850   43.9900 C   0  0  0  0  0  0  0  0  0  0  0  0
   72.5000   43.5450   44.5500 C   0  0  0  0  0  0  0  0  0  0  0  0
   75.1150   45.4000   42.5080 O   0  0  0  0  0  0  0  0  0  0  0  0
   61.0510   41.1110   51.8990 C   0  0  0  0  0  0  0  0  0  0  0  0
   64.6920   40.6930   46.8840 C   0  0  0  0  0  0  0  0  0  0  0  0
   62.7110   40.6390   48.5770 C   0  0  0  0  0  0  0  0  0  0  0  0
   73.8020   46.6310   44.0900 C   0  0  0  0  0  0  0  0  0  0  0  0
   63.4070   40.7660   47.6880 C   0  0  0  0  0  0  0  0  0  0  0  0
   75.6920   44.6830   43.4400 C   0  0  0  0  0  0  0  0  0  0  0  0
   77.0400   44.6730   43.3890 O   0  0  0  0  0  0  0  0  0  0  0  0
   68.3780   41.6810   44.4070 O   0  0  0  0  0  0  0  0  0  0  0  0
   72.1530   42.5910   44.8790 O   0  0  0  0  0  0  0  0  0  0  0  0
   73.7280   44.1780   44.3520 C   0  0  0  0  0  0  0  0  0  0  0  0
   71.1980   44.2080   44.0630 O   0  0  0  0  0  0  0  0  0  0  0  0
   61.4230   40.8850   49.2550 C   0  0  0  0  0  0  0  0  0  0  0  0
  1 10  1  0
  1 11  1  0
  4 16  1  0
  5  9  1  0
  5 10  1  0
  7 24  1  0
  7  9  1  0
  8  2  1  0
  8 19  1  0
 13 19  1  0
 14 24  1  0
 15 21  2  0
 16 12  1  0
 16  3  1  0
 17 11  1  0
 17 20  1  0
 18 27  1  0
 20 18  1  0
 21  6  1  0
 22 21  1  0
 23  5  2  0
 25 13  1  0
 25 14  1  0
 25  6  1  0
 26 14  2  0
 27  4  1  0
M  END
$$$$

     RDKit          3D

 25 25  0  0  0  0  0  0  0  0999 V2000
   71.2990   38.5220   45.1520 O   0  0  0  0  0  0  0  0  0  0  0  0
   68.0310   42.4550   46.0470 C   0  0  0  0  0  0  0  0  0  0  0  0
   70.6710   40.7530   47.3900 O   0  0  0  0  0  0  0  0  0  0  0  0
   68.8480   44.3150   44.9110 C   0  0  0  0  0  0  0  0  0  0  0  0
   71.8790   41.8200   45.3830 C   0  0  0  0  0  0  0  0  0  0  0  0
   73.6390   43.9140   44.3290 C   0  0  0  0  0  0  0  0  0  0  0  0
   71.4630   44.8350   44.2220 C   0  0  0  0  0  0  0  0  0  0  0  0
   73.9010   46.8430   42.4220 O   0  0  0  0  0  0  0  0  0  0  0  0
   69.9890   40.7360   46.1590 C   0  0  0  0  0  0  0  0  0  0  0  0
   73.3020   46.0040   43.1300 C   0  0  0  0  0  0  0  0  0  0  0  0
   72.3470   43.9250   44.7330 C   0  0  0  0  0  0  0  0  0  0  0  0
   68.5100   41.0870   46.2520 O   0  0  0  0  0  0  0  0  0  0  0  0
   69.3380   35.7250   46.5270 C   0  0  0  0  0  0  0  0  0  0  0  0
   69.4580   38.2960   46.6160 C   0  0  0  0  0  0  0  0  0  0  0  0
   70.2320   41.6320   43.6970 C   0  0  0  0  0  0  0  0  0  0  0  0
   72.6450   40.8360   45.2600 O   0  0  0  0  0  0  0  0  0  0  0  0
   74.1350   44.9460   43.5080 C   0  0  0  0  0  0  0  0  0  0  0  0
   70.1840   39.2550   45.5000 C   0  0  0  0  0  0  0  0  0  0  0  0
   72.0670   43.0780   45.7630 N   0  0  0  0  0  0  0  0  0  0  0  0
   67.9650   38.3700   46.9830 C   0  0  0  0  0  0  0  0  0  0  0  0
   71.9850   45.9750   43.5690 C   0  0  0  0  0  0  0  0  0  0  0  0
   70.4200   41.8000   45.1480 C   0  0  0  0  0  0  0  0  0  0  0  0
   75.0240   44.6380   43.2200 C   0  0  0  0  0  0  0  0  0  0  0  0
   69.8370   36.9250   46.1190 N   0  0  0  0  0  0  0  0  0  0  0  0
   68.0820   43.0470   44.6210 C   0  0  0  0  0  0  0  0  0  0  0  0
  2 12  1  0
  5 19  1  0
  6 11  2  0
  7 11  1  0
  8 10  2  0
  9 12  1  0
  9  3  1  0
 10 17  1  0
 10 21  1  0
 11 19  1  0
 14 20  1  0
 16  5  2  0
 17  6  1  0
 18  1  1  0
 18  9  1  0
 18 14  1  0
 21  7  1  0
 22 15  1  0
 22  5  1  0
 22  9  1  0
 23 17  2  0
 24 13  1  0
 24 14  1  0
 25  4  1  0
 25  2  1  0
M  END
$$$$

     RDKit          3D

  8  8  0  0  0  0  0  0  0  0999 V2000
   69.8190   43.2210   44.8710 C   0  0  0  0  0  0  0  0  0  0  0  0
   70.3550   42.1880   44.9340 C   0  0  0  0  0  0  0  0  0  0  0  0
   70.7000   44.4420   44.5790 C   0  0  0  0  0  0  0  0  0  0  0  0
   71.7180   44.2100   43.4300 C   0  0  0  0  0  0  0  0  0  0  0  0
   73.7700   42.8190   42.9300 S   0  0  0  0  0  0  0  0  0  0  0  0
   71.0760   41.9560   43.5800 C   0  0  0  0  0  0  0  0  0  0  0  0
   72.1560   42.8190   43.6250 C   0  0  0  0  0  0  0  0  0  0  0  0
   68.6190   43.1620   44.5480 O   0  0  0  0  0  0  0  0  0  0  0  0
  1  2  1  0
  3  1  1  0
  4  7  1  0
  4  3  1  0
  5  7  1  0
  6  7  1  0
  6  2  1  0
  8  1  2  0
M  END
$$$$

     RDKit          3D

 12 12  0  0  0  0  0  0  0  0999 V2000
   68.1800   41.8090   45.6320 C   0  0  0  0  0  0  0  0  0  0  0  0
   71.7480   44.5500   43.5070 C   0  0  0  0  0  0  0  0  0  0  0  0
   72.6960   45.2030   43.1750 C   0  0  0  0  0  0  0  0  0  0  0  0
   70.3430   42.5790   44.8350 C   0  0  0  0  0  0  0  0  0  0  0  0
   69.0220   43.0940   45.4930 C   0  0  0  0  0  0  0  0  0  0  0  0
   70.7450   43.9330   44.0360 C   0  0  0  0  0  0  0  0  0  0  0  0
   73.8150   45.5430   42.7780 O   0  0  0  0  0  0  0  0  0  0  0  0
   69.6660   41.6860   43.7610 C   0  0  0  0  0  0  0  0  0  0  0  0
   66.8390   42.0220   45.1060 O   0  0  0  0  0  0  0  0  0  0  0  0
   70.7100   41.8070   45.9850 N   0  0  0  0  0  0  0  0  0  0  0  0
   68.8600   40.8380   44.6550 C   0  0  0  0  0  0  0  0  0  0  0  0
   68.2380   39.7690   44.3490 O   0  0  0  0  0  0  0  0  0  0  0  0
  1  9  1  0
  2  6  1  0
  3  2  3  0
  4  5  1  0
  4 10  1  0
  5  1  1  0
  6  4  1  0
  7  3  1  0
  8 11  1  0
  8  4  1  0
 11  1  1  0
 12 11  2  0
M  END
$$$$

     RDKit          3D

 15 15  0  0  0  0  0  0  0  0999 V2000
   66.9500   42.2050   45.7870 O   0  0  0  0  0  0  0  0  0  0  0  0
   69.0600   43.9660   43.9680 N   0  0  0  0  0  0  0  0  0  0  0  0
   70.4600   42.0490   44.6840 C   0  0  0  0  0  0  0  0  0  0  0  0
   71.3790   40.8720   44.2660 C   0  0  0  0  0  0  0  0  0  0  0  0
   73.5920   39.8380   43.6330 O   0  0  0  0  0  0  0  0  0  0  0  0
   68.2030   42.2460   45.7900 C   0  0  0  0  0  0  0  0  0  0  0  0
   68.2490   42.3880   48.2100 C   0  0  0  0  0  0  0  0  0  0  0  0
   73.4350   44.0370   45.6460 O   0  0  0  0  0  0  0  0  0  0  0  0
   71.3790   43.0880   45.3480 O   0  0  0  0  0  0  0  0  0  0  0  0
   73.6050   42.0370   44.6030 C   0  0  0  0  0  0  0  0  0  0  0  0
   70.6060   39.7120   43.8850 O   0  0  0  0  0  0  0  0  0  0  0  0
   69.0040   42.5610   44.5160 C   0  0  0  0  0  0  0  0  0  0  0  0
   72.7370   43.0230   45.2340 C   0  0  0  0  0  0  0  0  0  0  0  0
   72.7720   40.7050   44.4290 C   0  0  0  0  0  0  0  0  0  0  0  0
   68.9570   42.6470   47.0330 O   0  0  0  0  0  0  0  0  0  0  0  0
  1  6  2  0
  3 12  1  0
  3  9  1  0
  4 11  1  0
  4 14  1  0
  4  3  1  0
  6 15  1  0
 10 13  1  0
 12  2  1  0
 12  6  1  0
 13  9  1  0
 13  8  2  0
 14  5  1  0
 14 10  1  0
 15  7  1  0
M  END
$$$$

     RDKit          3D

 12 12  0  0  0  0  0  0  0  0999 V2000
   74.1210   48.7780   42.7150 C   0  0  0  0  0  0  0  0  0  0  0  0
   71.5740   49.1070   43.1220 C   0  0  0  0  0  0  0  0  0  0  0  0
   72.1600   44.1180   43.6800 C   0  0  0  0  0  0  0  0  0  0  0  0
   72.8660   47.2720   43.7510 O   0  0  0  0  0  0  0  0  0  0  0  0
   71.0130   46.8570   42.9930 O   0  0  0  0  0  0  0  0  0  0  0  0
   74.1040   49.7090   41.5310 C   0  0  0  0  0  0  0  0  0  0  0  0
   72.7720   48.4510   43.1810 C   0  0  0  0  0  0  0  0  0  0  0  0
   71.4710   45.2540   44.4820 C   0  0  0  0  0  0  0  0  0  0  0  0
   71.8110   46.4730   43.7710 C   0  0  0  0  0  0  0  0  0  0  0  0
   75.1030   48.0210   42.8960 O   0  0  0  0  0  0  0  0  0  0  0  0
   72.8980   43.3440   43.9800 O   0  0  0  0  0  0  0  0  0  0  0  0
   70.5470   48.2170   43.3220 C   0  0  0  0  0  0  0  0  0  0  0  0
  1 10  2  0
  2  7  1  0
  2 12  1  0
  3 11  2  0
  3  8  1  0
  4  9  1  0
  5 12  1  0
  5  9  1  0
  6  1  1  0
  7  1  1  0
  7  4  1  0
  9  8  1  0
M  END
$$$$

     RDKit          3D

  6  6  0  0  0  0  0  0  0  0999 V2000
   70.1260   41.9810   43.3870 O   0  0  0  0  0  0  0  0  0  0  0  0
   72.4100   42.3910   44.7220 O   0  0  0  0  0  0  0  0  0  0  0  0
   71.4700   40.1460   44.2810 O   0  0  0  0  0  0  0  0  0  0  0  0
   70.4570   41.3860   46.1580 C   0  0  0  0  0  0  0  0  0  0  0  0
   69.3620   41.8820   45.4830 O   0  0  0  0  0  0  0  0  0  0  0  0
   70.8670   41.4880   44.6760 S   0  0  0  0  0  0  0  0  0  0  0  0
  1  6  1  0
  3  6  1  0
  5  4  1  0
  6  2  1  0
  6  5  1  0
  6  4  1  0
M  END
$$$$

     RDKit          3D

 11 11  0  0  0  0  0  0  0  0999 V2000
   70.3790   43.8880   45.1130 O   0  0  0  0  0  0  0  0  0  0  0  0
   71.3650   42.8850   44.7850 C   0  0  0  0  0  0  0  0  0  0  0  0
   74.1320   39.9140   44.9070 C   0  0  0  0  0  0  0  0  0  0  0  0
   73.1450   44.6110   44.4560 C   0  0  0  0  0  0  0  0  0  0  0  0
   72.3190   44.9180   43.3240 O   0  0  0  0  0  0  0  0  0  0  0  0
   73.3160   41.0540   44.5370 C   0  0  0  0  0  0  0  0  0  0  0  0
   73.7310   42.3210   44.8550 O   0  0  0  0  0  0  0  0  0  0  0  0
   70.9990   41.5240   45.3290 C   0  0  0  0  0  0  0  0  0  0  0  0
   69.7680   40.9340   45.0420 O   0  0  0  0  0  0  0  0  0  0  0  0
   72.7760   43.3360   45.2330 C   0  0  0  0  0  0  0  0  0  0  0  0
   72.0530   40.4850   44.8150 C   0  0  0  0  0  0  0  0  0  0  0  0
  2  1  1  0
  2 10  1  0
  2  8  1  0
  5  4  1  0
  6 11  1  0
  6  7  1  0
  6  3  1  0
  7 10  1  0
  8  9  1  0
 10  4  1  0
 11  8  1  0
M  END
$$$$

     RDKit          3D

 10 10  0  0  0  0  0  0  0  0999 V2000
   69.9180   43.5980   43.7520 O   0  0  0  0  0  0  0  0  0  0  0  0
   70.8640   42.8870   44.4910 S   0  0  0  0  0  0  0  0  0  0  0  0
   70.3650   40.2890   43.9790 C   0  0  0  0  0  0  0  0  0  0  0  0
   71.2640   43.3720   46.1220 O   0  0  0  0  0  0  0  0  0  0  0  0
   72.2920   42.9160   43.9290 O   0  0  0  0  0  0  0  0  0  0  0  0
   70.1520   41.2920   44.9290 C   0  0  0  0  0  0  0  0  0  0  0  0
   69.0480   39.8610   46.2400 C   0  0  0  0  0  0  0  0  0  0  0  0
   69.7250   39.1170   44.0390 C   0  0  0  0  0  0  0  0  0  0  0  0
   69.0200   38.9810   45.1720 C   0  0  0  0  0  0  0  0  0  0  0  0
   69.4170   41.1370   46.0010 C   0  0  0  0  0  0  0  0  0  0  0  0
  1  2  1  0
  2  6  1  0
  2  4  1  0
  3  8  1  0
  3  6  2  0
  5  2  1  0
  6 10  1  0
  8  9  1  0
  9  7  1  0
 10  7  1  0
M  END
$$$$

     RDKit          3D

 19 19  0  0  0  0  0  0  0  0999 V2000
   71.5550   40.6940   44.2530 C   0  0  0  0  0  0  0  0  0  0  0  0
   69.7250   42.0490   45.0310 C   0  0  0  0  0  0  0  0  0  0  0  0
   71.4070   45.9470   43.1030 C   0  0  0  0  0  0  0  0  0  0  0  0
   72.5070   38.5710   44.2530 C   0  0  0  0  0  0  0  0  0  0  0  0
   73.3260   42.9210   45.1590 C   0  0  0  0  0  0  0  0  0  0  0  0
   71.0680   43.9750   44.4490 N   0  0  0  0  0  0  0  0  0  0  0  0
   68.4810   42.8500   43.1570 O   0  0  0  0  0  0  0  0  0  0  0  0
   72.5610   41.0620   46.3060 O   0  0  0  0  0  0  0  0  0  0  0  0
   73.8870   38.8330   43.7740 N   0  0  0  0  0  0  0  0  0  0  0  0
   71.6300   39.6570   43.4480 C   0  0  0  0  0  0  0  0  0  0  0  0
   72.2270   44.8660   43.9370 C   0  0  0  0  0  0  0  0  0  0  0  0
   68.5040   42.3660   44.2740 C   0  0  0  0  0  0  0  0  0  0  0  0
   73.3730   45.8920   44.3700 C   0  0  0  0  0  0  0  0  0  0  0  0
   67.3560   41.9890   44.5860 O   0  0  0  0  0  0  0  0  0  0  0  0
   69.7100   41.2150   46.0060 O   0  0  0  0  0  0  0  0  0  0  0  0
   73.3040   43.5990   43.8000 C   0  0  0  0  0  0  0  0  0  0  0  0
   69.8250   44.5450   44.3260 O   0  0  0  0  0  0  0  0  0  0  0  0
   72.1770   41.8370   45.0900 C   0  0  0  0  0  0  0  0  0  0  0  0
   70.9950   42.7580   44.8740 C   0  0  0  0  0  0  0  0  0  0  0  0
  1 18  1  0
  2 15  2  0
  3 11  1  0
  6 19  1  0
  7 12  2  0
  9  4  1  0
 10  1  1  0
 10  4  1  0
 11 13  1  0
 11  6  1  0
 12 14  1  0
 12  2  1  0
 16 11  1  0
 16  5  1  0
 17  6  1  0
 18  5  1  0
 18  8  1  0
 19  2  1  0
 19 18  1  0
M  END
$$$$

     RDKit          3D

 11 11  0  0  0  0  0  0  0  0999 V2000
   71.2920   45.2740   43.5770 C   0  0  0  0  0  0  0  0  0  0  0  0
   73.2740   43.6580   42.3970 O   0  0  0  0  0  0  0  0  0  0  0  0
   68.8730   44.5550   45.8200 O   0  0  0  0  0  0  0  0  0  0  0  0
   72.5490   44.6350   41.8750 C   0  0  0  0  0  0  0  0  0  0  0  0
   73.7610   45.1770   42.0650 C   0  0  0  0  0  0  0  0  0  0  0  0
   70.2030   45.1110   44.1420 C   0  0  0  0  0  0  0  0  0  0  0  0
   74.7960   45.1400   41.6760 O   0  0  0  0  0  0  0  0  0  0  0  0
   69.5810   44.1390   44.8660 C   0  0  0  0  0  0  0  0  0  0  0  0
   71.2760   45.0860   42.1730 O   0  0  0  0  0  0  0  0  0  0  0  0
   73.9370   46.3130   42.5320 O   0  0  0  0  0  0  0  0  0  0  0  0
   69.4420   43.0040   44.4120 O   0  0  0  0  0  0  0  0  0  0  0  0
  1  6  1  0
  4  5  1  0
  4  9  1  0
  4  2  1  0
  5  2  1  0
  5 10  1  0
  6  8  1  0
  7  5  1  0
  8  3  1  0
  9  1  1  0
 11  8  2  0
M  END
$$$$

     RDKit          3D

 11 11  0  0  0  0  0  0  0  0999 V2000
   72.4160   41.9270   43.2340 O   0  0  0  0  0  0  0  0  0  0  0  0
   70.8560   41.8660   44.9410 C   0  0  0  0  0  0  0  0  0  0  0  0
   67.4850   42.1180   46.9440 C   0  0  0  0  0  0  0  0  0  0  0  0
   69.8090   39.2890   45.8150 O   0  0  0  0  0  0  0  0  0  0  0  0
   68.7620   41.5710   46.6830 O   0  0  0  0  0  0  0  0  0  0  0  0
   72.1970   39.5170   44.2360 C   0  0  0  0  0  0  0  0  0  0  0  0
   72.1010   40.8580   45.1550 C   0  0  0  0  0  0  0  0  0  0  0  0
   73.0110   43.1960   44.8490 O   0  0  0  0  0  0  0  0  0  0  0  0
   67.9630   40.5520   44.6670 O   0  0  0  0  0  0  0  0  0  0  0  0
   72.3340   42.2250   44.4780 C   0  0  0  0  0  0  0  0  0  0  0  0
   69.2180   40.9950   45.2140 P   0  0  0  0  0  0  0  0  0  0  0  0
  1 10  1  0
  2  7  1  0
  2 11  1  0
  5  3  1  0
  7  6  1  0
 10  8  1  0
 10  2  1  0
 10  7  1  0
 11  9  2  0
 11  4  1  0
 11  5  1  0
M  END
$$$$

     RDKit          3D

 10 11  0  0  0  0  0  0  0  0999 V2000
   70.3320   41.2640   43.3990 N   0  0  0  0  0  0  0  0  0  0  0  0
   70.8440   39.9950   43.5070 N   0  0  0  0  0  0  0  0  0  0  0  0
   70.5360   39.0590   44.4210 C   0  0  0  0  0  0  0  0  0  0  0  0
   69.9450   44.1320   43.2370 O   0  0  0  0  0  0  0  0  0  0  0  0
   71.9760   39.7670   42.5140 C   0  0  0  0  0  0  0  0  0  0  0  0
   69.1170   44.3370   45.2180 O   0  0  0  0  0  0  0  0  0  0  0  0
   71.8670   38.9660   43.7530 C   0  0  0  0  0  0  0  0  0  0  0  0
   69.7460   43.6030   44.3300 C   0  0  0  0  0  0  0  0  0  0  0  0
   69.0760   41.4620   45.1490 O   0  0  0  0  0  0  0  0  0  0  0  0
   69.8650   42.1360   44.4690 C   0  0  0  0  0  0  0  0  0  0  0  0
  1 10  1  0
  2  1  1  0
  2  7  1  0
  2  3  1  0
  4  8  2  0
  5  2  1  0
  7  5  1  0
  7  3  1  0
  8 10  1  0
  8  6  1  0
 10  9  2  0
M  END
$$$$

     RDKit          3D

 11 11  0  0  0  0  0  0  0  0999 V2000
   74.0330   43.3640   43.6040 C   0  0  0  0  0  0  0  0  0  0  0  0
   70.9750   42.7340   43.7740 C   0  0  0  0  0  0  0  0  0  0  0  0
   72.7460   40.8750   44.4080 S   0  0  0  0  0  0  0  0  0  0  0  0
   68.8090   41.9570   45.2270 N   0  0  0  0  0  0  0  0  0  0  0  0
   72.8660   44.1640   42.9720 C   0  0  0  0  0  0  0  0  0  0  0  0
   68.0700   42.5470   44.2140 N   0  0  0  0  0  0  0  0  0  0  0  0
   70.2600   42.5160   45.1110 C   0  0  0  0  0  0  0  0  0  0  0  0
   74.8010   41.2310   44.4710 C   0  0  0  0  0  0  0  0  0  0  0  0
   71.6440   44.0770   43.6950 N   0  0  0  0  0  0  0  0  0  0  0  0
   73.5390   42.3900   44.6760 C   0  0  0  0  0  0  0  0  0  0  0  0
   68.5530   42.2100   46.6710 C   0  0  0  0  0  0  0  0  0  0  0  0
  2  7  1  0
  3  8  1  0
  3 10  1  0
  4 11  1  0
  5  1  1  0
  5  9  1  0
  6  4  1  0
  7  4  1  0
  8 10  1  0
  9  2  1  0
 10  1  1  0
M  END
$$$$

     RDKit          3D

 11 11  0  0  0  0  0  0  0  0999 V2000
   71.0240   45.4470   44.2230 C   0  0  0  0  0  0  0  0  0  0  0  0
   70.0190   41.9040   44.5380 C   0  0  0  0  0  0  0  0  0  0  0  0
   71.3480   41.5380   44.5900 C   0  0  0  0  0  0  0  0  0  0  0  0
   69.0440   41.8250   43.4630 O   0  0  0  0  0  0  0  0  0  0  0  0
   69.2930   39.5880   44.8640 O   0  0  0  0  0  0  0  0  0  0  0  0
   68.2640   41.3180   45.9570 O   0  0  0  0  0  0  0  0  0  0  0  0
   69.3720   40.7860   45.5760 C   0  0  0  0  0  0  0  0  0  0  0  0
   72.0590   41.5740   45.8450 O   0  0  0  0  0  0  0  0  0  0  0  0
   70.9980   42.9720   44.1830 C   0  0  0  0  0  0  0  0  0  0  0  0
   69.6430   45.1630   44.0410 O   0  0  0  0  0  0  0  0  0  0  0  0
   71.8040   44.1730   44.1860 O   0  0  0  0  0  0  0  0  0  0  0  0
  2  4  1  0
  2  3  1  0
  2  7  1  0
  3  8  1  0
  5  7  1  0
  7  6  1  0
  9 11  1  0
  9  2  1  0
  9  3  1  0
 10  1  1  0
 11  1  1  0
M  END
$$$$

     RDKit          3D

  6  5  0  0  0  0  0  0  0  0999 V2000
   70.6560   42.3840   46.4910 C   0  0  0  0  0  0  0  0  0  0  0  0
   72.1630   41.0820   44.3910 O   0  0  0  0  0  0  0  0  0  0  0  0
   71.1940   41.7130   44.1390 C   0  0  0  0  0  0  0  0  0  0  0  0
   69.2830   41.6840   46.3610 C   0  0  0  0  0  0  0  0  0  0  0  0
   71.1260   42.8560   45.1920 C   0  0  0  0  0  0  0  0  0  0  0  0
   73.4170   41.0380   43.6230 C   0  0  0  0  0  0  0  0  0  0  0  0
  3  2  1  0
  3  5  1  0
  4  1  1  0
  5  1  1  0
  6  2  1  0
M  END
$$$$

     RDKit          3D

 13 13  0  0  0  0  0  0  0  0999 V2000
   69.8260   43.0700   45.4790 C   0  0  0  0  0  0  0  0  0  0  0  0
   68.4690   41.2960   46.1100 O   0  0  0  0  0  0  0  0  0  0  0  0
   72.2460   43.3950   43.0890 O   0  0  0  0  0  0  0  0  0  0  0  0
   72.7750   41.1050   42.3850 O   0  0  0  0  0  0  0  0  0  0  0  0
   69.5530   44.8630   44.0560 C   0  0  0  0  0  0  0  0  0  0  0  0
   68.7850   41.7370   44.8220 C   0  0  0  0  0  0  0  0  0  0  0  0
   70.9090   40.2930   45.5350 O   0  0  0  0  0  0  0  0  0  0  0  0
   72.0980   42.4510   44.1250 C   0  0  0  0  0  0  0  0  0  0  0  0
   71.6970   41.1630   43.3600 C   0  0  0  0  0  0  0  0  0  0  0  0
   70.6750   40.6680   44.3290 C   0  0  0  0  0  0  0  0  0  0  0  0
   71.1220   42.9020   45.0980 O   0  0  0  0  0  0  0  0  0  0  0  0
   69.0280   43.9970   44.8190 O   0  0  0  0  0  0  0  0  0  0  0  0
   69.3960   41.2660   44.0680 O   0  0  0  0  0  0  0  0  0  0  0  0
  1 12  1  0
  5 12  1  0
  6  1  1  0
  6  2  1  0
  8  3  1  0
  8 11  1  0
  9  4  1  0
  9  8  1  0
  9 10  1  0
 10  7  2  0
 11  1  1  0
 13 10  1  0
 13  6  1  0
M  END
$$$$
