tmp_mol_0_123.sdf
     RDKit          3D

 48 49  0  0  0  0  0  0  0  0999 V2000
    1.2850    0.3310   51.5360 C   0  0  0  0  0  0  0  0  0  0  0  0
    3.4010    8.2360   53.1020 N   0  0  0  0  0  0  0  0  0  0  0  0
    3.1040    4.7170   50.4780 O   0  0  0  0  0  0  0  0  0  0  0  0
    1.8300    1.0520   52.7400 C   0  0  0  0  0  0  0  0  0  0  0  0
    3.5170    8.3590   50.4050 O   0  0  0  0  0  0  0  0  0  0  0  0
    2.7620    2.1350   52.2400 C   0  0  0  0  0  0  0  0  0  0  0  0
    2.1230    2.4980   50.8760 C   0  0  0  0  0  0  0  0  0  0  0  0
    1.2740    1.4540   50.4820 C   0  0  0  0  0  0  0  0  0  0  0  0
    0.5450    1.5650   49.3050 C   0  0  0  0  0  0  0  0  0  0  0  0
   -0.4000    0.4450   48.8930 C   0  0  0  0  0  0  0  0  0  0  0  0
    0.6590    2.6950   48.5030 C   0  0  0  0  0  0  0  0  0  0  0  0
    1.4930    3.7430   48.8900 C   0  0  0  0  0  0  0  0  0  0  0  0
    2.2150    3.6580   50.0900 C   0  0  0  0  0  0  0  0  0  0  0  0
    2.9490    6.0530   49.9860 C   0  0  0  0  0  0  0  0  0  0  0  0
    3.6180    7.0650   50.9570 C   0  0  2  0  0  0  0  0  0  0  0  0
    2.9860    7.0360   52.3810 C   0  0  2  0  0  0  0  0  0  0  0  0
    1.4650    7.0340   52.3050 C   0  0  0  0  0  0  0  0  0  0  0  0
    3.4000    8.0860   54.5460 C   0  0  1  0  0  0  0  0  0  0  0  0
    4.6070    8.8140   55.1190 C   0  0  0  0  0  0  0  0  0  0  0  0
    2.1430    8.7230   55.1300 C   0  0  0  0  0  0  0  0  0  0  0  0
    1.9210   -0.5150   51.2350 H   0  0  0  0  0  0  0  0  0  0  0  0
    0.2800   -0.0790   51.7170 H   0  0  0  0  0  0  0  0  0  0  0  0
    4.3320    8.4620   52.8150 H   0  0  0  0  0  0  0  0  0  0  0  0
    1.0070    1.4980   53.3180 H   0  0  0  0  0  0  0  0  0  0  0  0
    2.3780    0.3500   53.3860 H   0  0  0  0  0  0  0  0  0  0  0  0
    3.9230    8.9860   50.9910 H   0  0  0  0  0  0  0  0  0  0  0  0
    2.7990    2.9970   52.9220 H   0  0  0  0  0  0  0  0  0  0  0  0
    3.7950    1.7740   52.1300 H   0  0  0  0  0  0  0  0  0  0  0  0
   -1.3970    0.6310   49.3190 H   0  0  0  0  0  0  0  0  0  0  0  0
   -0.4710    0.4100   47.7960 H   0  0  0  0  0  0  0  0  0  0  0  0
   -0.0150   -0.5150   49.2670 H   0  0  0  0  0  0  0  0  0  0  0  0
    0.1020    2.7610   47.5800 H   0  0  0  0  0  0  0  0  0  0  0  0
    1.5830    4.6200   48.2660 H   0  0  0  0  0  0  0  0  0  0  0  0
    3.4240    6.1320   48.9970 H   0  0  0  0  0  0  0  0  0  0  0  0
    1.8770    6.2860   49.9030 H   0  0  0  0  0  0  0  0  0  0  0  0
    4.6730    6.7770   51.0760 H   0  0  0  0  0  0  0  0  0  0  0  0
    3.3220    6.1220   52.8930 H   0  0  0  0  0  0  0  0  0  0  0  0
    1.1260    6.1380   51.7650 H   0  0  0  0  0  0  0  0  0  0  0  0
    1.0470    7.0290   53.3230 H   0  0  0  0  0  0  0  0  0  0  0  0
    1.1230    7.9340   51.7730 H   0  0  0  0  0  0  0  0  0  0  0  0
    3.4320    7.0160   54.7980 H   0  0  0  0  0  0  0  0  0  0  0  0
    4.6150    8.7060   56.2140 H   0  0  0  0  0  0  0  0  0  0  0  0
    5.5280    8.3820   54.7010 H   0  0  0  0  0  0  0  0  0  0  0  0
    4.5500    9.8810   54.8560 H   0  0  0  0  0  0  0  0  0  0  0  0
    2.1470    8.6070   56.2240 H   0  0  0  0  0  0  0  0  0  0  0  0
    2.1220    9.7930   54.8750 H   0  0  0  0  0  0  0  0  0  0  0  0
    1.2540    8.2290   54.7120 H   0  0  0  0  0  0  0  0  0  0  0  0
    3.0042    9.1019   52.7661 H   0  0  0  0  0  0  0  0  0  0  0  0
  1  4  1  0
  1  8  1  0
  1 21  1  0
  1 22  1  0
  2 16  1  0
  2 18  1  0
  2 23  1  0
  3 13  1  0
  3 14  1  0
  4  6  1  0
  4 24  1  0
  4 25  1  0
  5 15  1  0
  5 26  1  0
  6  7  1  0
  6 27  1  0
  6 28  1  0
  7  8  2  0
  7 13  1  0
  8  9  1  0
  9 10  1  0
  9 11  2  0
 10 29  1  0
 10 30  1  0
 10 31  1  0
 11 12  1  0
 11 32  1  0
 12 13  2  0
 12 33  1  0
 14 15  1  0
 14 34  1  0
 14 35  1  0
 15 16  1  0
 15 36  1  1
 16 17  1  0
 16 37  1  1
 17 38  1  0
 17 39  1  0
 17 40  1  0
 18 19  1  0
 18 20  1  0
 18 41  1  6
 19 42  1  0
 19 43  1  0
 19 44  1  0
 20 45  1  0
 20 46  1  0
 20 47  1  0
  2 48  1  0
M  CHG  1   2   1
M  END
$$$$
