
     RDKit          3D

 19 18  0  0  0  0  0  0  0  0999 V2000
   68.4710   41.6380   47.1990 C   0  0  0  0  0  0  0  0  0  0  0  0
   72.5610   42.9550   44.9490 O   0  0  0  0  0  0  0  0  0  0  0  0
   73.9940   40.6820   44.7890 O   0  0  0  0  0  0  0  0  0  0  0  0
   67.1650   40.9980   47.4810 C   0  0  0  0  0  0  0  0  0  0  0  0
   65.0790   41.5890   50.3600 C   0  0  0  0  0  0  0  0  0  0  0  0
   70.4920   40.9770   44.2080 O   0  0  0  0  0  0  0  0  0  0  0  0
   63.6850   42.1390   52.2630 C   0  0  0  0  0  0  0  0  0  0  0  0
   64.6410   41.4730   53.1940 C   0  0  0  0  0  0  0  0  0  0  0  0
   69.4090   41.1900   46.3890 C   0  0  0  0  0  0  0  0  0  0  0  0
   72.6740   40.6440   45.1910 C   0  0  0  0  0  0  0  0  0  0  0  0
   64.8930   40.2750   55.3360 C   0  0  0  0  0  0  0  0  0  0  0  0
   72.0260   41.7800   45.7280 C   0  0  0  0  0  0  0  0  0  0  0  0
   64.1480   41.3380   54.6280 C   0  0  0  0  0  0  0  0  0  0  0  0
   72.4340   39.5100   46.0260 O   0  0  0  0  0  0  0  0  0  0  0  0
   70.5770   41.4490   45.5470 C   0  0  0  0  0  0  0  0  0  0  0  0
   65.6650   41.2700   49.2820 N   0  0  0  0  0  0  0  0  0  0  0  0
   62.6720   40.9450   54.6680 C   0  0  0  0  0  0  0  0  0  0  0  0
   66.8660   40.6820   48.9410 C   0  0  0  0  0  0  0  0  0  0  0  0
   64.2940   42.3400   50.9290 C   0  0  0  0  0  0  0  0  0  0  0  0
  1  4  1  0
  3 10  1  0
  4 18  1  0
  5 19  2  3
  7  8  1  0
  8 13  1  0
  9  1  1  0
 10 12  1  0
 10 14  1  0
 12  2  1  0
 13 17  1  0
 13 11  1  0
 15  6  1  0
 15 12  1  0
 15  9  1  0
 16  5  1  0
 18 16  1  0
 19  7  1  0
M  END
$$$$

     RDKit          3D

 15 14  0  0  0  0  0  0  0  0999 V2000
   70.9290   41.7830   47.1500 O   0  0  0  0  0  0  0  0  0  0  0  0
   67.0280   42.9200   50.5670 N   0  0  0  0  0  0  0  0  0  0  0  0
   68.3150   41.5190   49.1960 C   0  0  0  0  0  0  0  0  0  0  0  0
   63.8170   43.1030   52.9370 O   0  0  0  0  0  0  0  0  0  0  0  0
   69.7390   42.1270   47.4700 C   0  0  0  0  0  0  0  0  0  0  0  0
   68.7800   41.8380   46.6560 O   0  0  0  0  0  0  0  0  0  0  0  0
   65.3710   43.2100   52.6220 P   0  0  0  0  0  0  0  0  0  0  0  0
   66.0750   41.6370   53.2600 C   0  0  0  0  0  0  0  0  0  0  0  0
   65.8020   42.2040   48.6070 N   0  0  0  0  0  0  0  0  0  0  0  0
   65.7270   43.2750   51.0080 C   0  0  0  0  0  0  0  0  0  0  0  0
   67.1260   42.4940   49.1570 C   0  0  0  0  0  0  0  0  0  0  0  0
   65.8990   44.4030   53.4140 O   0  0  0  0  0  0  0  0  0  0  0  0
   64.6740   42.9190   48.8530 C   0  0  0  0  0  0  0  0  0  0  0  0
   63.5960   43.2270   49.0200 N   0  0  0  0  0  0  0  0  0  0  0  0
   69.5200   42.2490   48.8470 N   0  0  0  0  0  0  0  0  0  0  0  0
  1  5  1  0
  2 10  1  0
  5 15  1  0
  6  5  2  0
  7  4  2  0
  7  8  1  0
  7 12  1  0
  9 13  1  0
  9 11  1  0
 10  7  1  0
 11  3  1  0
 11  2  1  0
 13 14  3  0
 15  3  1  0
M  END
$$$$

     RDKit          3D

 12 11  0  0  0  0  0  0  0  0999 V2000
   64.0860   41.9390   49.9770 C   0  0  0  0  0  0  0  0  0  0  0  0
   62.7120   40.0840   51.2850 C   0  0  0  0  0  0  0  0  0  0  0  0
   71.0580   40.4670   45.0820 C   0  0  0  0  0  0  0  0  0  0  0  0
   65.3040   40.7890   47.8500 C   0  0  0  0  0  0  0  0  0  0  0  0
   63.3330   39.7440   52.4880 O   0  0  0  0  0  0  0  0  0  0  0  0
   64.3160   40.9380   48.9550 N   0  0  0  0  0  0  0  0  0  0  0  0
   69.9210   41.0070   45.0810 C   0  0  0  0  0  0  0  0  0  0  0  0
   66.8420   40.7990   47.8100 C   0  0  0  0  0  0  0  0  0  0  0  0
   67.6130   41.6720   46.5240 S   0  0  0  0  0  0  0  0  0  0  0  0
   63.0620   39.1770   50.2950 O   0  0  0  0  0  0  0  0  0  0  0  0
   63.1460   41.5920   51.1360 C   0  0  0  0  0  0  0  0  0  0  0  0
   68.6400   40.4580   45.7590 C   0  0  0  0  0  0  0  0  0  0  0  0
  1 11  1  0
  2  5  1  0
  4  6  1  0
  6  1  2  3
  7  3  2  0
  7 12  1  0
  8  4  1  0
  9  8  1  0
 10  2  1  0
 11  2  1  0
 12  9  1  0
M  END
$$$$

     RDKit          3D

 26 29  0  0  0  0  0  0  0  0999 V2000
   71.8200   43.1820   44.3440 C   0  0  0  0  0  0  0  0  0  0  0  0
   70.1410   41.1330   45.0620 C   0  0  0  0  0  0  0  0  0  0  0  0
   67.9990   40.6140   45.1520 O   0  0  0  0  0  0  0  0  0  0  0  0
   65.6890   39.9510   48.1130 C   0  0  0  0  0  0  0  0  0  0  0  0
   73.1670   43.3780   43.5690 C   0  0  0  0  0  0  0  0  0  0  0  0
   72.5460   41.6090   45.0270 N   0  0  0  0  0  0  0  0  0  0  0  0
   64.0080   41.6500   48.1470 O   0  0  0  0  0  0  0  0  0  0  0  0
   68.6610   42.5680   43.8270 O   0  0  0  0  0  0  0  0  0  0  0  0
   66.5020   39.7880   46.8180 C   0  0  0  0  0  0  0  0  0  0  0  0
   68.8640   41.7390   44.8860 C   0  0  0  0  0  0  0  0  0  0  0  0
   73.5820   44.7740   43.8480 O   0  0  0  0  0  0  0  0  0  0  0  0
   71.3070   42.0000   44.9950 N   0  0  0  0  0  0  0  0  0  0  0  0
   67.9010   39.4490   47.0110 N   0  0  0  0  0  0  0  0  0  0  0  0
   64.5110   40.7210   48.7880 C   0  0  0  0  0  0  0  0  0  0  0  0
   66.0880   39.4350   50.4830 N   0  0  0  0  0  0  0  0  0  0  0  0
   75.4100   43.6850   44.5270 O   0  0  0  0  0  0  0  0  0  0  0  0
   66.5700   39.8030   49.2320 C   0  0  0  0  0  0  0  0  0  0  0  0
   70.0460   40.2400   45.9480 N   0  0  0  0  0  0  0  0  0  0  0  0
   73.0160   40.4930   45.8250 C   0  0  0  0  0  0  0  0  0  0  0  0
   62.6990   40.6600   50.4320 O   0  0  0  0  0  0  0  0  0  0  0  0
   73.6110   41.6970   45.4540 C   0  0  0  0  0  0  0  0  0  0  0  0
   64.0410   40.3450   50.1910 C   0  0  0  0  0  0  0  0  0  0  0  0
   74.2880   43.9210   44.4300 C   0  0  0  0  0  0  0  0  0  0  0  0
   69.0700   42.0080   42.5910 C   0  0  0  0  0  0  0  0  0  0  0  0
   68.6700   39.7570   45.8870 C   0  0  0  0  0  0  0  0  0  0  0  0
   64.7140   38.9710   50.3750 C   0  0  0  0  0  0  0  0  0  0  0  0
  1 12  1  0
  2 12  1  0
  2 18  1  0
  3 25  1  0
  4  9  1  0
  4 14  1  0
  4 17  1  0
  5 11  1  0
  5  1  1  0
  5 23  1  0
  6 21  1  0
  6 19  1  0
  7 14  2  0
  9 13  1  0
 10  8  1  0
 10  2  1  0
 10  3  1  0
 11 23  1  0
 12  6  1  0
 14 22  1  0
 17 15  1  0
 21 19  1  0
 22 26  1  0
 22 20  1  0
 23 16  1  0
 24  8  1  0
 25 18  1  0
 25 13  1  0
 26 15  1  0
M  END
$$$$

     RDKit          3D

 19 20  0  0  0  0  0  0  0  0999 V2000
   67.9740   42.9030   49.0820 O   0  0  0  0  0  0  0  0  0  0  0  0
   70.6990   40.9900   46.7900 C   0  0  0  0  0  0  0  0  0  0  0  0
   72.1170   41.5590   46.9850 C   0  0  0  0  0  0  0  0  0  0  0  0
   70.1720   48.0350   47.7810 O   0  0  0  0  0  0  0  0  0  0  0  0
   69.6030   45.8220   48.1210 C   0  0  0  0  0  0  0  0  0  0  0  0
   68.8020   45.0130   48.8110 C   0  0  0  0  0  0  0  0  0  0  0  0
   73.0400   40.8860   46.0170 C   0  0  0  0  0  0  0  0  0  0  0  0
   70.7050   38.9140   45.8450 C   0  0  0  0  0  0  0  0  0  0  0  0
   70.7580   40.3860   45.5340 O   0  0  0  0  0  0  0  0  0  0  0  0
   73.3320   39.4680   46.2560 C   0  0  0  0  0  0  0  0  0  0  0  0
   69.5340   47.2450   48.3790 C   0  0  0  0  0  0  0  0  0  0  0  0
   68.7200   43.6950   48.4690 C   0  0  0  0  0  0  0  0  0  0  0  0
   69.6360   43.1070   47.5270 C   0  0  0  0  0  0  0  0  0  0  0  0
   69.5010   41.8130   46.9910 C   0  0  0  0  0  0  0  0  0  0  0  0
   68.7490   47.7150   49.2750 N   0  0  0  0  0  0  0  0  0  0  0  0
   72.1350   38.4290   45.8960 C   0  0  0  0  0  0  0  0  0  0  0  0
   68.3350   40.9650   47.3530 N   0  0  0  0  0  0  0  0  0  0  0  0
   70.5850   43.8910   47.0710 N   0  0  0  0  0  0  0  0  0  0  0  0
   70.5810   45.2700   47.2700 C   0  0  0  0  0  0  0  0  0  0  0  0
  2  3  1  0
  2 14  1  0
  4 11  2  0
  5 11  1  0
  5  6  2  0
  7 10  1  0
  7  3  1  0
  8 16  1  0
  9  8  1  0
  9  2  1  0
 11 15  1  0
 12  6  1  0
 12  1  2  0
 13 12  1  0
 14 17  1  0
 14 13  1  0
 16 10  1  0
 18 19  1  0
 18 13  2  0
 19  5  1  0
M  END
$$$$

     RDKit          3D

 13 13  0  0  0  0  0  0  0  0999 V2000
   65.8480   40.6590   49.6980 N   0  0  0  0  0  0  0  0  0  0  0  0
   66.0680   41.0770   48.3920 C   0  0  0  0  0  0  0  0  0  0  0  0
   65.5090   42.9760   52.2280 C   0  0  0  0  0  0  0  0  0  0  0  0
   66.7950   40.5150   47.2130 C   0  0  0  0  0  0  0  0  0  0  0  0
   63.8100   41.5530   53.4250 C   0  0  0  0  0  0  0  0  0  0  0  0
   68.1990   40.8990   47.8280 O   0  0  0  0  0  0  0  0  0  0  0  0
   64.2810   40.8310   52.1250 C   0  0  0  0  0  0  0  0  0  0  0  0
   65.1130   41.6480   54.2110 C   0  0  0  0  0  0  0  0  0  0  0  0
   66.0630   42.3820   53.3870 N   0  0  0  0  0  0  0  0  0  0  0  0
   67.5260   41.7440   48.7000 C   0  0  0  0  0  0  0  0  0  0  0  0
   65.6920   41.8450   50.3460 C   0  0  0  0  0  0  0  0  0  0  0  0
   66.0240   39.9040   47.5330 C   0  0  0  0  0  0  0  0  0  0  0  0
   65.0660   41.6530   51.6030 C   0  0  0  0  0  0  0  0  0  0  0  0
  1 11  1  0
  2  1  1  0
  3  9  1  0
  4 12  1  0
  4  6  1  0
  5  8  1  0
  6 10  1  0
  7  5  1  0
  9  8  1  0
 12  2  1  0
 13 11  1  0
 13  7  1  0
 13  3  1  0
M  END
$$$$

     RDKit          3D

 10  9  0  0  0  0  0  0  0  0999 V2000
   67.3380   37.4670   46.5850 C   0  0  0  0  0  0  0  0  0  0  0  0
   68.9080   39.4500   46.0130 C   0  0  0  0  0  0  0  0  0  0  0  0
   66.9140   37.0440   47.9750 C   0  0  0  0  0  0  0  0  0  0  0  0
   69.9280   39.5360   45.3730 O   0  0  0  0  0  0  0  0  0  0  0  0
   69.8530   36.2310   48.2660 N   0  0  0  0  0  0  0  0  0  0  0  0
   66.1630   37.6320   48.7760 N   0  0  0  0  0  0  0  0  0  0  0  0
   67.7970   40.1070   45.7330 O   0  0  0  0  0  0  0  0  0  0  0  0
   68.8480   37.8910   46.5830 C   0  0  0  0  0  0  0  0  0  0  0  0
   70.8570   36.7000   46.3150 O   0  0  0  0  0  0  0  0  0  0  0  0
   69.9170   36.9180   47.0570 C   0  0  0  0  0  0  0  0  0  0  0  0
  1  3  1  0
  2  8  1  0
  3  6  2  0
  4  2  2  0
  7  2  1  0
  8  1  1  0
  8 10  1  0
  9 10  2  0
 10  5  1  0
M  END
$$$$

     RDKit          3D

 14 14  0  0  0  0  0  0  0  0999 V2000
   65.3250   38.6900   48.7320 C   0  0  0  0  0  0  0  0  0  0  0  0
   66.1450   39.2070   47.5830 C   0  0  0  0  0  0  0  0  0  0  0  0
   71.6990   40.1080   44.5380 C   0  0  0  0  0  0  0  0  0  0  0  0
   66.3830   40.6750   47.8000 C   0  0  0  0  0  0  0  0  0  0  0  0
   71.0690   40.9760   43.6490 C   0  0  0  0  0  0  0  0  0  0  0  0
   68.3430   40.0230   46.7210 C   0  0  0  0  0  0  0  0  0  0  0  0
   70.9960   40.3620   45.8500 C   0  0  0  0  0  0  0  0  0  0  0  0
   63.8530   38.9790   51.3570 C   0  0  0  0  0  0  0  0  0  0  0  0
   63.5190   39.0060   49.9450 C   0  0  0  0  0  0  0  0  0  0  0  0
   64.5990   39.4200   49.2030 N   0  0  0  0  0  0  0  0  0  0  0  0
   67.5140   39.6630   47.9490 C   0  0  0  0  0  0  0  0  0  0  0  0
   69.6420   40.5450   47.3270 C   0  0  0  0  0  0  0  0  0  0  0  0
   70.3990   41.1820   46.2780 C   0  0  0  0  0  0  0  0  0  0  0  0
   69.7540   41.4690   44.0040 C   0  0  0  0  0  0  0  0  0  0  0  0
  1 10  1  0
  2  4  1  0
  2 11  1  0
  2  1  1  0
  3  7  1  0
  4 11  1  0
  5 14  1  0
  5  3  1  0
  6 12  1  0
  7 13  1  0
  9  8  1  0
 10  9  1  0
 11  6  1  0
 13 12  1  0
M  END
$$$$

     RDKit          3D

  9  8  0  0  0  0  0  0  0  0999 V2000
   65.7200   39.8390   46.8120 C   0  0  0  0  0  0  0  0  0  0  0  0
   67.9610   40.4300   45.8490 C   0  0  0  0  0  0  0  0  0  0  0  0
   69.0260   41.0450   46.7750 C   0  0  0  0  0  0  0  0  0  0  0  0
   66.7030   40.8410   46.3990 C   0  0  0  0  0  0  0  0  0  0  0  0
   64.7410   39.9950   47.5110 O   0  0  0  0  0  0  0  0  0  0  0  0
   63.5920   39.6890   49.5340 C   0  0  0  0  0  0  0  0  0  0  0  0
   64.9040   38.9510   50.0220 O   0  0  0  0  0  0  0  0  0  0  0  0
   64.1030   40.7210   48.5410 C   0  0  0  0  0  0  0  0  0  0  0  0
   69.6080   41.9880   46.6150 O   0  0  0  0  0  0  0  0  0  0  0  0
  1  5  1  0
  2  4  1  0
  2  3  1  0
  4  1  2  3
  5  8  1  0
  6  7  1  0
  8  6  1  0
  9  3  2  0
M  END
$$$$

     RDKit          3D

  9  9  0  0  0  0  0  0  0  0999 V2000
   64.9610   40.0040   48.6090 O   0  0  0  0  0  0  0  0  0  0  0  0
   66.4860   38.2970   46.1930 C   0  0  0  0  0  0  0  0  0  0  0  0
   68.2380   38.8780   44.7100 O   0  0  0  0  0  0  0  0  0  0  0  0
   65.3720   40.1100   47.1960 C   0  0  0  0  0  0  0  0  0  0  0  0
   66.8110   37.0990   46.2970 O   0  0  0  0  0  0  0  0  0  0  0  0
   65.4980   38.7110   47.0900 N   0  0  0  0  0  0  0  0  0  0  0  0
   67.3120   39.1840   45.5360 C   0  0  0  0  0  0  0  0  0  0  0  0
   67.4330   40.4740   46.0500 O   0  0  0  0  0  0  0  0  0  0  0  0
   66.7500   40.7090   47.2200 C   0  0  0  0  0  0  0  0  0  0  0  0
  2  5  2  0
  2  6  1  0
  3  7  2  0
  4  9  1  0
  4  1  1  0
  6  4  1  0
  7  8  1  0
  7  2  1  0
  8  9  1  0
M  END
$$$$

     RDKit          3D

 11 11  0  0  0  0  0  0  0  0999 V2000
   67.8010   39.4010   45.5520 O   0  0  0  0  0  0  0  0  0  0  0  0
   73.3070   41.3090   45.5870 C   0  0  0  0  0  0  0  0  0  0  0  0
   66.4030   39.2160   47.7620 C   0  0  0  0  0  0  0  0  0  0  0  0
   71.1280   40.7940   46.3340 C   0  0  0  0  0  0  0  0  0  0  0  0
   67.7900   39.6280   47.6690 N   0  0  0  0  0  0  0  0  0  0  0  0
   69.8950   42.9400   45.4620 C   0  0  0  0  0  0  0  0  0  0  0  0
   69.0640   41.9260   45.7920 C   0  0  0  0  0  0  0  0  0  0  0  0
   71.8780   41.5260   45.9380 C   0  0  0  0  0  0  0  0  0  0  0  0
   71.2560   42.9080   45.4780 C   0  0  0  0  0  0  0  0  0  0  0  0
   68.1790   40.0120   46.5730 N   0  0  0  0  0  0  0  0  0  0  0  0
   69.5040   40.7400   46.3610 C   0  0  0  0  0  0  0  0  0  0  0  0
  1 10  1  0
  2  8  1  0
  4 11  1  0
  5  3  1  0
  6  9  2  0
  6  7  1  0
  7 11  2  0
  8  4  2  0
  9  8  1  0
 10  5  1  0
 11 10  1  0
M  END
$$$$

     RDKit          3D

 21 22  0  0  0  0  0  0  0  0999 V2000
   76.2940   43.6630   42.9290 C   0  0  0  0  0  0  0  0  0  0  0  0
   74.4080   42.6540   44.5580 C   0  0  0  0  0  0  0  0  0  0  0  0
   65.7290   41.0850   50.5200 C   0  0  0  0  0  0  0  0  0  0  0  0
   75.7340   43.2050   44.1600 C   0  0  0  0  0  0  0  0  0  0  0  0
   73.0080   43.3250   44.7110 C   0  0  0  0  0  0  0  0  0  0  0  0
   67.2310   40.8680   47.0850 C   0  0  0  0  0  0  0  0  0  0  0  0
   76.0210   44.3940   42.5650 O   0  0  0  0  0  0  0  0  0  0  0  0
   63.2940   40.4470   49.6760 N   0  0  0  0  0  0  0  0  0  0  0  0
   66.2550   41.1500   48.0200 C   0  0  0  0  0  0  0  0  0  0  0  0
   70.9060   42.6570   45.8070 O   0  0  0  0  0  0  0  0  0  0  0  0
   75.0310   41.7740   43.8120 C   0  0  0  0  0  0  0  0  0  0  0  0
   68.6370   41.4740   47.0110 C   0  0  0  0  0  0  0  0  0  0  0  0
   68.6570   41.8730   45.5530 C   0  0  0  0  0  0  0  0  0  0  0  0
   72.2870   42.2970   45.8590 C   0  0  0  0  0  0  0  0  0  0  0  0
   66.1480   40.6810   49.1970 O   0  0  0  0  0  0  0  0  0  0  0  0
   62.2460   40.4890   51.7570 C   0  0  0  0  0  0  0  0  0  0  0  0
   64.3440   41.7060   50.6280 C   0  0  0  0  0  0  0  0  0  0  0  0
   61.9770   40.4720   52.9380 C   0  0  0  0  0  0  0  0  0  0  0  0
   76.8480   43.1390   41.6810 C   0  0  0  0  0  0  0  0  0  0  0  0
   70.0430   42.0140   44.9470 C   0  0  0  0  0  0  0  0  0  0  0  0
   63.6100   40.5810   51.1630 C   0  0  0  0  0  0  0  0  0  0  0  0
  2  5  1  0
  4  1  1  0
  4  2  1  0
  5 14  1  0
  6  9  1  0
  7  1  2  0
  8 17  1  0
  8 21  1  0
  9 15  1  0
 10 14  1  0
 11  4  1  0
 11  2  1  0
 12  6  1  0
 13 12  1  0
 15  3  1  0
 16 18  2  0
 17  3  1  0
 17 21  1  0
 19  1  1  0
 20 13  1  0
 20 10  1  0
 21 16  1  0
M  END
$$$$

     RDKit          3D

 15 15  0  0  0  0  0  0  0  0999 V2000
   65.1870   42.0370   48.5760 C   0  0  0  0  0  0  0  0  0  0  0  0
   71.3130   44.1640   44.8820 O   0  0  0  0  0  0  0  0  0  0  0  0
   70.9080   43.7010   46.7450 O   0  0  0  0  0  0  0  0  0  0  0  0
   64.5470   41.0250   49.2280 C   0  0  0  0  0  0  0  0  0  0  0  0
   68.7110   42.2650   46.2400 N   0  0  0  0  0  0  0  0  0  0  0  0
   66.5340   42.1250   48.3250 C   0  0  0  0  0  0  0  0  0  0  0  0
   67.3410   41.0320   48.6830 C   0  0  0  0  0  0  0  0  0  0  0  0
   69.5480   41.7420   47.0380 C   0  0  0  0  0  0  0  0  0  0  0  0
   66.8200   39.9800   49.4410 C   0  0  0  0  0  0  0  0  0  0  0  0
   70.6170   41.0180   46.6990 O   0  0  0  0  0  0  0  0  0  0  0  0
   69.0280   40.8460   48.4660 S   0  0  0  0  0  0  0  0  0  0  0  0
   64.8160   39.3290   50.7880 N   0  0  0  0  0  0  0  0  0  0  0  0
   70.3440   43.7160   45.4220 C   0  0  0  0  0  0  0  0  0  0  0  0
   69.0780   43.0110   45.0440 C   0  0  0  0  0  0  0  0  0  0  0  0
   65.5080   39.9540   49.7400 C   0  0  0  0  0  0  0  0  0  0  0  0
  1  4  1  0
  2 13  2  0
  4 15  2  0
  5  8  1  0
  6  1  2  0
  6  7  1  0
  7  9  2  0
  8 11  1  0
  9 15  1  0
 10  8  2  0
 11  7  1  0
 13  3  1  0
 14 13  1  0
 14  5  1  0
 15 12  1  0
M  END
$$$$

     RDKit          3D

 15 17  0  0  0  0  0  0  0  0999 V2000
   71.9230   45.8710   44.6970 C   0  0  0  0  0  0  0  0  0  0  0  0
   67.5400   38.8990   47.8860 C   0  0  0  0  0  0  0  0  0  0  0  0
   71.1000   44.6690   45.0800 N   0  0  0  0  0  0  0  0  0  0  0  0
   65.8470   39.7950   49.1690 C   0  0  0  0  0  0  0  0  0  0  0  0
   68.6470   42.1030   46.0300 O   0  0  0  0  0  0  0  0  0  0  0  0
   66.4460   41.0230   48.4960 C   0  0  0  0  0  0  0  0  0  0  0  0
   66.9600   38.7680   49.2810 C   0  0  0  0  0  0  0  0  0  0  0  0
   67.7150   40.3960   47.7980 C   0  0  0  0  0  0  0  0  0  0  0  0
   66.5130   38.4390   46.8470 C   0  0  0  0  0  0  0  0  0  0  0  0
   68.6080   41.3260   47.2280 C   0  0  0  0  0  0  0  0  0  0  0  0
   71.0500   42.3640   45.4500 C   0  0  0  0  0  0  0  0  0  0  0  0
   69.6710   44.2670   45.2070 C   0  0  0  0  0  0  0  0  0  0  0  0
   70.1010   44.4470   43.7970 C   0  0  0  0  0  0  0  0  0  0  0  0
   69.6300   42.8100   45.6990 C   0  0  0  0  0  0  0  0  0  0  0  0
   71.9770   43.2710   45.2490 C   0  0  0  0  0  0  0  0  0  0  0  0
  2  9  1  0
  2  7  1  0
  3  1  1  0
  3 12  1  0
  3 15  1  0
  4  7  1  0
  5 10  1  0
  6  4  1  0
  8 10  1  0
  8  2  1  0
  8  6  1  0
 11 14  1  0
 12 13  1  0
 12 14  1  0
 13  3  1  0
 14  5  1  0
 15 11  1  0
M  END
$$$$

     RDKit          3D

 18 20  0  0  0  0  0  0  0  0999 V2000
   67.0610   42.0460   50.9060 C   0  0  0  0  0  0  0  0  0  0  0  0
   71.1130   42.5980   44.6990 N   0  0  0  0  0  0  0  0  0  0  0  0
   73.5310   42.3200   44.2370 C   0  0  0  0  0  0  0  0  0  0  0  0
   69.2380   41.5770   47.4030 C   0  0  0  0  0  0  0  0  0  0  0  0
   71.6740   41.9520   42.4030 C   0  0  0  0  0  0  0  0  0  0  0  0
   66.1290   43.0750   51.4200 C   0  0  0  0  0  0  0  0  0  0  0  0
   65.7720   42.4680   52.7610 N   0  0  0  0  0  0  0  0  0  0  0  0
   66.7570   42.8460   54.9720 O   0  0  0  0  0  0  0  0  0  0  0  0
   69.8540   43.0210   46.8570 S   0  0  0  0  0  0  0  0  0  0  0  0
   65.0770   44.8710   53.5180 O   0  0  0  0  0  0  0  0  0  0  0  0
   68.9790   42.0320   48.8430 C   0  0  0  0  0  0  0  0  0  0  0  0
   65.5950   43.2850   54.0450 P   0  0  0  0  0  0  0  0  0  0  0  0
   68.4110   42.0380   46.3060 O   0  0  0  0  0  0  0  0  0  0  0  0
   68.1030   42.4190   49.9610 C   0  0  0  0  0  0  0  0  0  0  0  0
   72.1180   41.9910   43.8370 C   0  0  0  0  0  0  0  0  0  0  0  0
   67.7020   42.9380   48.6340 C   0  0  0  0  0  0  0  0  0  0  0  0
   71.1680   42.8620   45.7070 C   0  0  0  0  0  0  0  0  0  0  0  0
   65.4320   42.4000   55.1600 O   0  0  0  0  0  0  0  0  0  0  0  0
  1  6  1  0
  2 17  1  0
  4 13  1  0
  4 11  1  0
  5 15  1  0
  6  7  1  0
  7 12  1  0
  8 18  1  0
  9 17  1  0
  9  4  1  0
 10 12  2  0
 11 16  1  0
 11 14  1  0
 12  8  1  0
 12 18  1  0
 13  9  1  0
 14  1  1  0
 15  3  1  0
 15  2  1  0
 16 14  1  0
M  END
$$$$

     RDKit          3D

 10 10  0  0  0  0  0  0  0  0999 V2000
   68.7130   39.8500   46.3460 P   0  0  0  0  0  0  0  0  0  0  0  0
   70.2580   42.1760   45.8550 C   0  0  0  0  0  0  0  0  0  0  0  0
   70.2550   40.7570   45.5910 C   0  0  0  0  0  0  0  0  0  0  0  0
   69.2790   39.8760   47.7330 O   0  0  0  0  0  0  0  0  0  0  0  0
   72.1280   42.9790   44.5520 O   0  0  0  0  0  0  0  0  0  0  0  0
   67.5170   40.6080   46.0810 O   0  0  0  0  0  0  0  0  0  0  0  0
   70.7900   44.4170   45.0000 O   0  0  0  0  0  0  0  0  0  0  0  0
   70.9860   43.2030   44.9700 C   0  0  0  0  0  0  0  0  0  0  0  0
   69.1230   38.4080   46.3690 O   0  0  0  0  0  0  0  0  0  0  0  0
   67.9290   39.4460   45.1200 O   0  0  0  0  0  0  0  0  0  0  0  0
  1  9  1  0
  1  4  1  0
  3  2  1  0
  3  1  1  0
  5  8  2  0
  6  1  1  0
  8  7  1  0
  8  2  1  0
 10  6  1  0
 10  1  1  0
M  END
$$$$

     RDKit          3D

 10  9  0  0  0  0  0  0  0  0999 V2000
   66.8970   41.3610   46.5820 O   0  0  0  0  0  0  0  0  0  0  0  0
   71.6090   39.8140   46.1920 C   0  0  0  0  0  0  0  0  0  0  0  0
   72.7220   40.0950   45.2400 N   0  0  0  0  0  0  0  0  0  0  0  0
   68.9830   40.3340   45.9940 C   0  0  0  0  0  0  0  0  0  0  0  0
   70.6350   42.0770   46.4050 C   0  0  0  0  0  0  0  0  0  0  0  0
   67.9440   41.6270   45.5090 P   0  0  0  0  0  0  0  0  0  0  0  0
   68.3820   43.0810   45.5670 O   0  0  0  0  0  0  0  0  0  0  0  0
   71.8720   42.5680   46.3410 N   0  0  0  0  0  0  0  0  0  0  0  0
   67.8580   41.3830   43.9350 O   0  0  0  0  0  0  0  0  0  0  0  0
   70.4060   40.6490   45.7740 C   0  0  0  0  0  0  0  0  0  0  0  0
  3  2  1  0
  6  7  1  0
  6  4  1  0
  6  1  1  0
  8  5  1  0
  9  6  2  0
 10  4  1  0
 10  2  1  0
 10  5  1  0
M  END
$$$$

     RDKit          3D

 11 10  0  0  0  0  0  0  0  0999 V2000
   71.3170   38.7460   46.1240 C   0  0  0  0  0  0  0  0  0  0  0  0
   70.2310   42.9700   46.0310 O   0  0  0  0  0  0  0  0  0  0  0  0
   66.0300   40.4510   48.3840 C   0  0  0  0  0  0  0  0  0  0  0  0
   65.8610   42.1390   46.4630 N   0  0  0  0  0  0  0  0  0  0  0  0
   71.1410   42.4030   44.1520 O   0  0  0  0  0  0  0  0  0  0  0  0
   70.7660   39.5300   44.9650 C   0  0  0  0  0  0  0  0  0  0  0  0
   70.3520   42.0590   45.0210 C   0  0  0  0  0  0  0  0  0  0  0  0
   66.3660   40.8950   46.9450 C   0  0  0  0  0  0  0  0  0  0  0  0
   68.7820   40.5870   46.0130 N   0  0  0  0  0  0  0  0  0  0  0  0
   67.9330   40.8140   46.9080 C   0  0  0  0  0  0  0  0  0  0  0  0
   69.9700   40.6890   45.4550 C   0  0  0  0  0  0  0  0  0  0  0  0
  4  8  1  0
  5  7  2  0
  6  1  1  0
  7 11  1  0
  7  2  1  0
  8  3  1  0
  9 10  1  0
 10  8  1  0
 11  6  1  0
 11  9  1  0
M  END
$$$$

     RDKit          3D

 10  9  0  0  0  0  0  0  0  0999 V2000
   71.5320   40.6150   43.6590 C   0  0  0  0  0  0  0  0  0  0  0  0
   69.8880   38.7180   45.0190 C   0  0  0  0  0  0  0  0  0  0  0  0
   69.8380   40.9790   44.6660 N   0  0  0  0  0  0  0  0  0  0  0  0
   68.1330   40.4940   47.6140 O   0  0  0  0  0  0  0  0  0  0  0  0
   68.4160   39.1540   45.6670 C   0  0  0  0  0  0  0  0  0  0  0  0
   71.3490   40.7430   42.1590 C   0  0  0  0  0  0  0  0  0  0  0  0
   69.5240   41.4760   45.9930 C   0  0  0  0  0  0  0  0  0  0  0  0
   70.2340   40.0020   44.2030 C   0  0  0  0  0  0  0  0  0  0  0  0
   68.4090   39.7960   46.4520 C   0  0  0  0  0  0  0  0  0  0  0  0
   72.1500   41.7500   44.4010 C   0  0  0  0  0  0  0  0  0  0  0  0
  1  8  1  0
  1 10  1  0
  2  5  1  0
  3  7  1  0
  5  9  2  0
  6  1  1  0
  8  3  1  0
  8  2  1  0
  9  4  2  0
M  END
$$$$

     RDKit          3D

 12 11  0  0  0  0  0  0  0  0999 V2000
   67.5040   39.3040   47.7690 N   0  0  0  0  0  0  0  0  0  0  0  0
   66.0750   39.0350   48.4800 C   0  0  0  0  0  0  0  0  0  0  0  0
   71.4780   40.3380   44.2350 O   0  0  0  0  0  0  0  0  0  0  0  0
   72.1890   42.1310   43.8760 O   0  0  0  0  0  0  0  0  0  0  0  0
   67.2080   40.2070   46.9230 C   0  0  0  0  0  0  0  0  0  0  0  0
   68.1580   42.3900   46.3950 O   0  0  0  0  0  0  0  0  0  0  0  0
   68.7040   40.5810   44.9090 C   0  0  0  0  0  0  0  0  0  0  0  0
   70.7720   41.3120   43.5400 S   0  0  0  0  0  0  0  0  0  0  0  0
   70.6640   41.3780   41.9560 C   0  0  0  0  0  0  0  0  0  0  0  0
   68.1590   41.1510   46.1940 C   0  0  0  0  0  0  0  0  0  0  0  0
   69.3510   41.7370   44.1640 N   0  0  0  0  0  0  0  0  0  0  0  0
   69.0950   39.2590   45.2280 O   0  0  0  0  0  0  0  0  0  0  0  0
  1  2  1  0
  5  1  1  0
  7 12  2  0
  7 10  1  0
  8  4  2  0
  8 11  1  0
  8  3  2  0
  9  8  1  0
 10  6  2  0
 10  5  1  0
 11  7  1  0
M  END
$$$$
