
     RDKit          3D

  6  6  0  0  0  0  0  0  0  0999 V2000
   66.2720   41.1380   39.8050 C   0  0  0  0  0  0  0  0  0  0  0  0
   64.4780   42.0080   41.2470 O   0  0  0  0  0  0  0  0  0  0  0  0
   67.3490   41.5360   39.5020 O   0  0  0  0  0  0  0  0  0  0  0  0
   65.7790   42.2630   40.5490 C   0  0  0  0  0  0  0  0  0  0  0  0
   65.6520   40.1430   39.2510 O   0  0  0  0  0  0  0  0  0  0  0  0
   64.5450   43.2000   40.9590 C   0  0  0  0  0  0  0  0  0  0  0  0
  3  1  1  0
  4  1  1  0
  4  6  1  0
  4  2  1  0
  5  1  2  0
  6  2  1  0
M  END
$$$$

     RDKit          3D

 12 11  0  0  0  0  0  0  0  0999 V2000
   66.1530   41.6750   41.5520 C   0  0  0  0  0  0  0  0  0  0  0  0
   63.4050   39.5400   41.1980 C   0  0  0  0  0  0  0  0  0  0  0  0
   65.5700   40.5750   40.7300 C   0  0  0  0  0  0  0  0  0  0  0  0
   64.7330   39.0160   43.4710 C   0  0  0  0  0  0  0  0  0  0  0  0
   66.4460   38.6610   41.5160 C   0  0  0  0  0  0  0  0  0  0  0  0
   64.0830   38.3010   41.1790 O   0  0  0  0  0  0  0  0  0  0  0  0
   64.2470   40.6120   41.4630 C   0  0  0  0  0  0  0  0  0  0  0  0
   65.2160   38.1710   42.2100 C   0  0  0  0  0  0  0  0  0  0  0  0
   62.6960   39.6890   40.1480 O   0  0  0  0  0  0  0  0  0  0  0  0
   64.9990   36.7470   42.3860 O   0  0  0  0  0  0  0  0  0  0  0  0
   65.6640   40.9580   39.5860 O   0  0  0  0  0  0  0  0  0  0  0  0
   67.4360   39.0580   41.9160 O   0  0  0  0  0  0  0  0  0  0  0  0
  2  9  1  0
  2  7  1  0
  3  7  1  0
  3  1  1  0
  5 12  2  0
  5  8  1  0
  6  2  1  0
  6  8  1  0
  8 10  1  0
  8  4  1  0
 11  3  1  0
M  END
$$$$

     RDKit          3D

 13 12  0  0  0  0  0  0  0  0999 V2000
   65.8970   40.6300   41.0070 C   0  0  0  0  0  0  0  0  0  0  0  0
   65.2530   37.7880   42.4280 C   0  0  0  0  0  0  0  0  0  0  0  0
   61.0950   37.4000   42.4640 C   0  0  0  0  0  0  0  0  0  0  0  0
   66.7920   40.5630   40.0870 O   0  0  0  0  0  0  0  0  0  0  0  0
   66.5390   37.8880   42.4320 N   0  0  0  0  0  0  0  0  0  0  0  0
   59.8720   38.0970   41.8840 C   0  0  0  0  0  0  0  0  0  0  0  0
   64.5530   38.9330   41.9530 C   0  0  0  0  0  0  0  0  0  0  0  0
   63.2440   38.3070   41.6360 C   0  0  0  0  0  0  0  0  0  0  0  0
   65.8910   41.3630   41.9710 O   0  0  0  0  0  0  0  0  0  0  0  0
   62.0750   38.4690   42.4500 C   0  0  0  0  0  0  0  0  0  0  0  0
   64.9200   39.5570   40.6660 C   0  0  0  0  0  0  0  0  0  0  0  0
   64.7700   36.6990   42.7800 O   0  0  0  0  0  0  0  0  0  0  0  0
   61.8530   40.5830   41.7300 S   0  0  0  0  0  0  0  0  0  0  0  0
  1  9  1  0
  2  5  1  0
  2 12  2  0
  4  1  2  0
  6  3  1  0
  7 11  1  0
  7  2  1  0
  8  7  1  0
  8 10  1  0
 10 13  1  0
 10  3  1  0
 11  1  1  0
M  END
$$$$

     RDKit          3D

  7  7  0  0  0  0  0  0  0  0999 V2000
   67.1340   41.5930   39.2740 C   0  0  0  0  0  0  0  0  0  0  0  0
   65.3320   42.5750   40.2260 C   0  0  0  0  0  0  0  0  0  0  0  0
   64.4090   41.6850   40.1200 C   0  0  0  0  0  0  0  0  0  0  0  0
   66.4900   42.9000   39.5710 C   0  0  0  0  0  0  0  0  0  0  0  0
   64.6580   40.4450   39.8440 O   0  0  0  0  0  0  0  0  0  0  0  0
   65.4730   43.9410   39.3960 C   0  0  0  0  0  0  0  0  0  0  0  0
   63.3040   42.2250   40.9740 O   0  0  0  0  0  0  0  0  0  0  0  0
  2  3  1  0
  3  7  1  0
  4  1  1  0
  4  2  1  0
  5  3  2  0
  6  4  1  0
  6  2  1  0
M  END
$$$$

     RDKit          3D

  9  9  0  0  0  0  0  0  0  0999 V2000
   64.3230   38.9070   40.5000 O   0  0  0  0  0  0  0  0  0  0  0  0
   66.4740   38.4670   40.7320 O   0  0  0  0  0  0  0  0  0  0  0  0
   65.3540   38.8990   41.2900 C   0  0  0  0  0  0  0  0  0  0  0  0
   64.3280   39.9970   44.8480 O   0  0  0  0  0  0  0  0  0  0  0  0
   65.0900   39.3360   42.5880 C   0  0  0  0  0  0  0  0  0  0  0  0
   64.0050   42.1280   42.8970 C   0  0  0  0  0  0  0  0  0  0  0  0
   63.5110   40.7620   42.9160 C   0  0  0  0  0  0  0  0  0  0  0  0
   62.3650   41.2860   43.4390 C   0  0  0  0  0  0  0  0  0  0  0  0
   64.1900   39.6150   43.5350 C   0  0  0  0  0  0  0  0  0  0  0  0
  1  3  2  0
  2  3  1  0
  3  5  1  0
  5  9  1  0
  6  7  1  0
  6  8  1  0
  7  8  1  0
  7  9  1  0
  9  4  1  0
M  END
$$$$

     RDKit          3D

 11 10  0  0  0  0  0  0  0  0999 V2000
   66.6160   40.4530   40.4640 C   0  0  0  0  0  0  0  0  0  0  0  0
   62.8480   40.4710   42.3440 C   0  0  0  0  0  0  0  0  0  0  0  0
   65.7340   40.8760   39.6840 C   0  0  0  0  0  0  0  0  0  0  0  0
   62.0140   40.5120   44.4500 C   0  0  0  0  0  0  0  0  0  0  0  0
   63.8990   41.2610   41.4280 C   0  0  0  0  0  0  0  0  0  0  0  0
   67.0160   41.5280   41.3390 O   0  0  0  0  0  0  0  0  0  0  0  0
   64.0750   40.8590   39.8910 S   0  0  0  0  0  0  0  0  0  0  0  0
   61.5560   40.7990   45.2820 O   0  0  0  0  0  0  0  0  0  0  0  0
   62.5720   39.4670   43.5740 C   0  0  0  0  0  0  0  0  0  0  0  0
   67.4960   39.4670   40.5270 O   0  0  0  0  0  0  0  0  0  0  0  0
   66.1250   42.0180   38.7520 N   0  0  0  0  0  0  0  0  0  0  0  0
  1 10  2  0
  1  6  1  0
  2  9  1  0
  3 11  1  0
  3  7  1  0
  3  1  1  0
  4  8  2  0
  5  2  1  0
  7  5  1  0
  9  4  1  0
M  END
$$$$

     RDKit          3D

  8  7  0  0  0  0  0  0  0  0999 V2000
   66.0020   37.4050   43.4690 C   0  0  0  0  0  0  0  0  0  0  0  0
   65.0500   39.2240   40.2520 O   0  0  0  0  0  0  0  0  0  0  0  0
   65.1780   39.4010   44.4030 O   0  0  0  0  0  0  0  0  0  0  0  0
   64.8550   38.2270   44.5000 C   0  0  0  0  0  0  0  0  0  0  0  0
   64.9910   39.5440   42.5850 C   0  0  0  0  0  0  0  0  0  0  0  0
   64.0030   37.7120   45.1970 N   0  0  0  0  0  0  0  0  0  0  0  0
   64.5070   38.8310   41.4190 C   0  0  0  0  0  0  0  0  0  0  0  0
   66.3090   38.0810   42.4020 C   0  0  0  0  0  0  0  0  0  0  0  0
  1  4  1  0
  2  7  1  0
  3  4  1  0
  4  6  2  0
  5  3  1  0
  7  5  1  0
  8  1  1  0
M  END
$$$$

     RDKit          3D

 10  9  0  0  0  0  0  0  0  0999 V2000
   68.0060   38.8130   38.5710 C   0  0  0  0  0  0  0  0  0  0  0  0
   66.1740   42.7160   38.1940 O   0  0  0  0  0  0  0  0  0  0  0  0
   69.1830   39.4210   38.2440 O   0  0  0  0  0  0  0  0  0  0  0  0
   65.3990   42.2410   40.6870 O   0  0  0  0  0  0  0  0  0  0  0  0
   65.2770   41.1030   40.0230 C   0  0  0  0  0  0  0  0  0  0  0  0
   66.9850   39.9080   38.6270 C   0  0  0  0  0  0  0  0  0  0  0  0
   68.1860   42.6460   39.5390 O   0  0  0  0  0  0  0  0  0  0  0  0
   66.2550   40.1130   39.8070 O   0  0  0  0  0  0  0  0  0  0  0  0
   67.6220   41.1000   38.0440 C   0  0  0  0  0  0  0  0  0  0  0  0
   67.3010   42.2910   38.6440 C   0  0  0  0  0  0  0  0  0  0  0  0
  1  6  1  0
  2 10  2  0
  3  1  1  0
  5  4  1  0
  6  9  1  0
  6  8  1  0
  8  5  1  0
  9 10  1  0
 10  7  1  0
M  END
$$$$

     RDKit          3D

 10  9  0  0  0  0  0  0  0  0999 V2000
   61.6280   41.8880   42.0740 C   0  0  0  0  0  0  0  0  0  0  0  0
   62.9440   42.6120   41.8900 C   0  0  0  0  0  0  0  0  0  0  0  0
   63.5740   42.3820   40.5590 C   0  0  0  0  0  0  0  0  0  0  0  0
   66.2300   42.5020   38.1160 C   0  0  0  0  0  0  0  0  0  0  0  0
   62.9600   41.5270   43.9340 N   0  0  0  0  0  0  0  0  0  0  0  0
   64.7480   42.0130   40.0630 C   0  0  0  0  0  0  0  0  0  0  0  0
   65.0170   41.7520   38.5980 C   0  0  0  0  0  0  0  0  0  0  0  0
   65.6900   41.8910   40.8520 O   0  0  0  0  0  0  0  0  0  0  0  0
   63.9100   42.1150   43.0010 C   0  0  0  0  0  0  0  0  0  0  0  0
   66.8650   41.4330   37.2740 C   0  0  0  0  0  0  0  0  0  0  0  0
  2  1  1  0
  2  9  1  0
  3  2  1  0
  4  7  1  0
  6  3  1  0
  6  8  2  0
  7  6  1  0
  9  5  1  0
 10  4  1  0
M  END
$$$$

     RDKit          3D

 16 15  0  0  0  0  0  0  0  0999 V2000
   66.5180   39.9580   37.1600 C   0  0  0  0  0  0  0  0  0  0  0  0
   62.7170   41.1160   42.1350 N   0  0  0  0  0  0  0  0  0  0  0  0
   66.9250   41.0960   39.3490 C   0  0  0  0  0  0  0  0  0  0  0  0
   62.0850   39.7040   43.9050 O   0  0  0  0  0  0  0  0  0  0  0  0
   66.9400   40.6590   35.8640 C   0  0  0  0  0  0  0  0  0  0  0  0
   65.0670   40.8470   42.9210 O   0  0  0  0  0  0  0  0  0  0  0  0
   62.4380   40.9140   43.3780 C   0  0  0  0  0  0  0  0  0  0  0  0
   63.0030   43.2780   41.3190 N   0  0  0  0  0  0  0  0  0  0  0  0
   64.9820   41.8870   42.0510 C   0  0  0  0  0  0  0  0  0  0  0  0
   62.5030   41.6040   44.1330 O   0  0  0  0  0  0  0  0  0  0  0  0
   61.8010   39.5560   45.2910 C   0  0  0  0  0  0  0  0  0  0  0  0
   67.2740   39.9880   38.4770 C   0  0  0  0  0  0  0  0  0  0  0  0
   67.8220   38.9850   38.9540 O   0  0  0  0  0  0  0  0  0  0  0  0
   66.1950   42.1290   41.4830 C   0  0  0  0  0  0  0  0  0  0  0  0
   63.6620   41.9850   41.3870 C   0  0  0  0  0  0  0  0  0  0  0  0
   66.9890   41.1000   40.7530 C   0  0  0  0  0  0  0  0  0  0  0  0
  1 12  1  0
  2  7  1  0
  3 16  2  3
  4 11  1  0
  5  1  1  0
  7  4  1  0
  7 10  2  0
  9  6  1  0
 12 13  2  0
 12  3  1  0
 14  9  1  0
 15  8  1  0
 15  9  1  0
 15  2  1  0
 16 14  1  0
M  END
$$$$

     RDKit          3D

 11 11  0  0  0  0  0  0  0  0999 V2000
   62.8930   43.9490   39.8970 C   0  0  0  0  0  0  0  0  0  0  0  0
   65.4460   44.2630   41.3060 S   0  0  0  0  0  0  0  0  0  0  0  0
   67.1310   40.1800   38.0990 C   0  0  0  0  0  0  0  0  0  0  0  0
   64.1700   43.2790   40.4520 C   0  0  0  0  0  0  0  0  0  0  0  0
   68.3310   40.5820   40.4130 O   0  0  0  0  0  0  0  0  0  0  0  0
   67.6380   41.2970   39.3090 P   0  0  0  0  0  0  0  0  0  0  0  0
   66.6120   42.9020   41.2070 C   0  0  0  0  0  0  0  0  0  0  0  0
   66.1250   41.8580   40.1930 C   0  0  0  0  0  0  0  0  0  0  0  0
   67.8370   42.5890   38.4450 O   0  0  0  0  0  0  0  0  0  0  0  0
   64.8530   42.3670   39.5700 C   0  0  0  0  0  0  0  0  0  0  0  0
   62.2220   44.5220   41.1990 C   0  0  0  0  0  0  0  0  0  0  0  0
  1 11  1  0
  4  1  1  0
  4  2  1  0
  6  3  1  0
  6  5  1  0
  7  2  1  0
  8  6  1  0
  8  7  1  0
  9  6  2  0
 10  8  1  0
 10  4  1  0
M  END
$$$$

     RDKit          3D

 14 14  0  0  0  0  0  0  0  0999 V2000
   61.8110   36.7680   43.5560 C   0  0  0  0  0  0  0  0  0  0  0  0
   63.9370   35.9340   44.2380 O   0  0  0  0  0  0  0  0  0  0  0  0
   62.7770   40.4360   43.8520 C   0  0  0  0  0  0  0  0  0  0  0  0
   61.7940   40.8320   42.7760 O   0  0  0  0  0  0  0  0  0  0  0  0
   60.8780   36.0400   44.0760 O   0  0  0  0  0  0  0  0  0  0  0  0
   62.6870   39.0260   43.9090 C   0  0  0  0  0  0  0  0  0  0  0  0
   64.5370   37.9760   42.6880 C   0  0  0  0  0  0  0  0  0  0  0  0
   63.0460   36.1160   43.0150 C   0  0  0  0  0  0  0  0  0  0  0  0
   60.3470   38.9220   44.5350 C   0  0  0  0  0  0  0  0  0  0  0  0
   63.8520   36.9720   42.0910 C   0  0  0  0  0  0  0  0  0  0  0  0
   61.4520   38.2660   43.6880 C   0  0  0  0  0  0  0  0  0  0  0  0
   65.8300   37.9700   42.9520 N   0  0  0  0  0  0  0  0  0  0  0  0
   62.0440   35.7550   41.4300 S   0  0  0  0  0  0  0  0  0  0  0  0
   63.9460   38.5230   43.8430 O   0  0  0  0  0  0  0  0  0  0  0  0
  1 11  1  0
  1  5  1  0
  4  3  1  0
  6  3  1  0
  7 12  2  0
  7 14  1  0
  8 13  1  0
  8  1  1  0
  8  2  1  0
 10  7  1  0
 10  8  1  0
 11  6  1  0
 11  9  1  0
 14  6  1  0
M  END
$$$$

     RDKit          3D

 19 21  0  0  0  0  0  0  0  0999 V2000
   61.6910   43.7180   40.9030 F   0  0  0  0  0  0  0  0  0  0  0  0
   69.2490   38.6560   37.3990 N   0  0  0  0  0  0  0  0  0  0  0  0
   70.0580   38.2490   38.6150 C   0  0  0  0  0  0  0  0  0  0  0  0
   65.0040   41.2580   40.1280 C   0  0  0  0  0  0  0  0  0  0  0  0
   66.5860   40.5360   38.7590 O   0  0  0  0  0  0  0  0  0  0  0  0
   66.3680   40.6210   39.8300 C   0  0  0  0  0  0  0  0  0  0  0  0
   71.2650   37.2220   38.4460 C   0  0  0  0  0  0  0  0  0  0  0  0
   64.9970   42.6130   39.7780 C   0  0  0  0  0  0  0  0  0  0  0  0
   61.9840   41.3790   42.0310 O   0  0  0  0  0  0  0  0  0  0  0  0
   62.9970   41.7160   41.2840 C   0  0  0  0  0  0  0  0  0  0  0  0
   67.5420   40.0980   40.3460 N   0  0  0  0  0  0  0  0  0  0  0  0
   69.2790   38.6560   40.8000 C   0  0  0  0  0  0  0  0  0  0  0  0
   63.8940   43.4100   39.9310 C   0  0  0  0  0  0  0  0  0  0  0  0
   68.4930   39.3760   39.8850 C   0  0  0  0  0  0  0  0  0  0  0  0
   69.0490   39.2830   38.6770 N   0  0  0  0  0  0  0  0  0  0  0  0
   70.1490   37.8720   40.3390 O   0  0  0  0  0  0  0  0  0  0  0  0
   70.8150   35.9470   37.7470 C   0  0  0  0  0  0  0  0  0  0  0  0
   62.7410   42.8490   40.5420 C   0  0  0  0  0  0  0  0  0  0  0  0
   63.8250   40.8070   40.6150 C   0  0  0  0  0  0  0  0  0  0  0  0
  2  3  1  0
  2 15  1  0
  3  7  1  0
  3 15  1  0
  3 16  1  0
  4 19  1  0
  5  6  2  0
  6  4  1  0
  6 11  1  0
  8 13  1  0
  8  4  2  0
 10  9  1  0
 13 18  2  0
 14 11  1  0
 14 12  2  0
 15 14  1  0
 16 12  1  0
 17  7  1  0
 18  1  1  0
 18 10  1  0
 19 10  2  0
M  END
$$$$

     RDKit          3D

 24 25  0  0  0  0  0  0  0  0999 V2000
   70.9060   38.0200   35.2240 C   0  0  0  0  0  0  0  0  0  0  0  0
   71.6890   36.7360   35.0210 C   0  0  0  0  0  0  0  0  0  0  0  0
   73.8630   37.4010   35.8150 O   0  0  0  0  0  0  0  0  0  0  0  0
   73.3990   35.3020   35.4050 O   0  0  0  0  0  0  0  0  0  0  0  0
   62.8280   42.8920   42.1110 C   0  0  0  0  0  0  0  0  0  0  0  0
   73.1880   36.4910   35.7350 C   0  0  0  0  0  0  0  0  0  0  0  0
   67.3860   40.2560   39.7850 C   0  0  0  0  0  0  0  0  0  0  0  0
   66.3170   41.1160   40.2550 C   0  0  0  0  0  0  0  0  0  0  0  0
   70.7830   35.6050   35.5510 C   0  0  0  0  0  0  0  0  0  0  0  0
   70.6940   38.3440   36.6200 N   0  0  0  0  0  0  0  0  0  0  0  0
   63.9990   42.5440   41.3500 C   0  0  0  0  0  0  0  0  0  0  0  0
   59.6780   40.4180   43.0570 S   0  0  0  0  0  0  0  0  0  0  0  0
   64.9490   40.9530   39.6010 C   0  0  0  0  0  0  0  0  0  0  0  0
   62.6990   40.7400   40.3520 C   0  0  0  0  0  0  0  0  0  0  0  0
   69.4540   39.9920   38.5510 C   0  0  0  0  0  0  0  0  0  0  0  0
   61.9130   42.2300   42.7750 C   0  0  0  0  0  0  0  0  0  0  0  0
   61.7990   40.1420   41.4150 C   0  0  0  0  0  0  0  0  0  0  0  0
   59.5760   38.8150   43.4420 C   0  0  0  0  0  0  0  0  0  0  0  0
   69.3400   38.3590   37.1370 C   0  0  0  0  0  0  0  0  0  0  0  0
   69.1330   38.4750   38.7810 C   0  0  0  0  0  0  0  0  0  0  0  0
   68.5300   40.7660   39.0650 N   0  0  0  0  0  0  0  0  0  0  0  0
   60.9970   41.2020   42.1140 C   0  0  0  0  0  0  0  0  0  0  0  0
   63.8460   41.3630   40.5170 N   0  0  0  0  0  0  0  0  0  0  0  0
   69.1810   39.9320   37.0100 C   0  0  0  0  0  0  0  0  0  0  0  0
  1 10  1  0
  2  1  1  0
  2  9  1  0
  2  6  1  0
  4  6  2  0
  5 16  1  0
  6  3  1  0
  7  8  1  0
 11  5  1  0
 12 18  1  0
 13  8  1  0
 13 23  1  0
 14 23  1  0
 14 17  1  0
 15 20  1  0
 15 21  1  0
 17 22  1  0
 19 10  1  0
 19 20  1  0
 21  7  2  3
 22 16  1  0
 22 12  1  0
 23 11  1  0
 24 19  1  0
 24 15  1  0
M  END
$$$$

     RDKit          3D

 13 12  0  0  0  0  0  0  0  0999 V2000
   64.6990   39.9760   46.1960 O   0  0  0  0  0  0  0  0  0  0  0  0
   63.9470   40.1550   43.8910 C   0  0  0  0  0  0  0  0  0  0  0  0
   66.2660   40.6800   41.6150 O   0  0  0  0  0  0  0  0  0  0  0  0
   63.8510   41.9190   39.4430 C   0  0  0  0  0  0  0  0  0  0  0  0
   64.3960   39.5170   42.6030 C   0  0  0  0  0  0  0  0  0  0  0  0
   63.2960   42.2750   41.6610 O   0  0  0  0  0  0  0  0  0  0  0  0
   62.6010   40.5280   43.9570 O   0  0  0  0  0  0  0  0  0  0  0  0
   65.5330   36.7060   43.6520 O   0  0  0  0  0  0  0  0  0  0  0  0
   65.0290   38.4520   42.2400 C   0  0  0  0  0  0  0  0  0  0  0  0
   66.1400   37.8710   43.0870 C   0  0  0  0  0  0  0  0  0  0  0  0
   64.3000   41.8100   40.8060 C   0  0  0  0  0  0  0  0  0  0  0  0
   64.9340   40.5950   41.4350 C   0  0  0  0  0  0  0  0  0  0  0  0
   64.2480   39.3140   45.0760 C   0  0  0  0  0  0  0  0  0  0  0  0
  2  7  1  0
  2 13  1  0
  5  9  1  0
  5  2  1  0
  9 10  1  0
 10  8  1  0
 11  4  1  0
 11 12  1  0
 11  6  1  0
 12  3  1  0
 12  5  1  0
 13  1  1  0
M  END
$$$$

     RDKit          3D

  1  0  0  0  0  0  0  0  0  0999 V2000
  373.3380 -137.8230  142.4990 O   0  0  0  0  0  0  0  0  0  0  0  0
M  END
$$$$

     RDKit          3D

  8  8  0  0  0  0  0  0  0  0999 V2000
   70.8330   38.0370   37.1940 O   0  0  0  0  0  0  0  0  0  0  0  0
   68.0520   39.7940   36.8750 C   0  0  0  0  0  0  0  0  0  0  0  0
   71.5460   39.7320   38.5390 O   0  0  0  0  0  0  0  0  0  0  0  0
   69.2850   40.6400   36.6900 N   0  0  0  0  0  0  0  0  0  0  0  0
   71.0370   39.2740   37.3820 C   0  0  0  0  0  0  0  0  0  0  0  0
   69.1660   41.4550   37.9440 C   0  0  0  0  0  0  0  0  0  0  0  0
   70.4330   40.1260   36.4100 N   0  0  0  0  0  0  0  0  0  0  0  0
   68.9990   42.1050   36.8640 C   0  0  0  0  0  0  0  0  0  0  0  0
  1  5  2  0
  4  8  1  0
  4  2  1  0
  4  6  1  0
  5  3  1  0
  7  4  1  0
  7  5  1  0
  8  6  1  0
M  END
$$$$

     RDKit          3D

 14 14  0  0  0  0  0  0  0  0999 V2000
   69.5650   35.2400   35.3080 C   0  0  0  0  0  0  0  0  0  0  0  0
   69.5040   39.1690   41.6760 C   0  0  0  0  0  0  0  0  0  0  0  0
   70.3660   35.0450   36.1200 C   0  0  0  0  0  0  0  0  0  0  0  0
   67.3850   37.8820   36.6360 O   0  0  0  0  0  0  0  0  0  0  0  0
   69.5710   38.7580   39.1800 C   0  0  0  0  0  0  0  0  0  0  0  0
   70.5720   36.8670   36.8080 C   0  0  0  0  0  0  0  0  0  0  0  0
   69.0970   39.5840   40.3580 C   0  0  0  0  0  0  0  0  0  0  0  0
   67.5590   39.5510   40.3250 C   0  0  0  0  0  0  0  0  0  0  0  0
   69.3250   36.8350   37.5060 C   0  0  0  0  0  0  0  0  0  0  0  0
   69.5800   41.0220   40.1730 C   0  0  0  0  0  0  0  0  0  0  0  0
   68.1170   35.9820   35.4410 C   0  0  0  0  0  0  0  0  0  0  0  0
   68.3130   36.9740   36.5190 C   0  0  0  0  0  0  0  0  0  0  0  0
   69.1770   39.3820   42.4220 N   0  0  0  0  0  0  0  0  0  0  0  0
   68.9670   37.8510   38.5390 C   0  0  0  0  0  0  0  0  0  0  0  0
  1 11  1  0
  1  3  1  0
  2 13  2  0
  3  6  1  0
  5  7  1  0
  6  9  1  0
  7  2  1  0
  8  7  1  0
  9 14  1  0
 10  7  1  0
 11 12  1  0
 12  4  1  0
 12  9  1  0
 14  5  2  3
M  END
$$$$

     RDKit          3D

  7  6  0  0  0  0  0  0  0  0999 V2000
   66.6350   41.9050   37.5700 C   0  0  0  0  0  0  0  0  0  0  0  0
   70.7300   41.3830   37.9550 C   0  0  0  0  0  0  0  0  0  0  0  0
   69.1160   41.4590   38.0590 C   0  0  0  0  0  0  0  0  0  0  0  0
   68.1930   41.9370   37.5370 C   0  0  0  0  0  0  0  0  0  0  0  0
   71.6440   40.2740   35.9200 O   0  0  0  0  0  0  0  0  0  0  0  0
   69.9550   39.9980   36.5880 O   0  0  0  0  0  0  0  0  0  0  0  0
   70.9080   40.2010   36.9820 C   0  0  0  0  0  0  0  0  0  0  0  0
  2  3  1  0
  4  1  1  0
  4  3  2  3
  5  7  1  0
  6  7  1  0
  7  2  1  0
M  END
$$$$

     RDKit          3D

  7  7  0  0  0  0  0  0  0  0999 V2000
   64.2070   42.4940   39.4440 N   0  0  0  0  0  0  0  0  0  0  0  0
   64.2230   40.2000   39.5690 O   0  0  0  0  0  0  0  0  0  0  0  0
   64.7160   42.6200   40.7830 C   0  0  0  0  0  0  0  0  0  0  0  0
   64.2880   43.9080   41.2850 C   0  0  0  0  0  0  0  0  0  0  0  0
   63.7740   40.4370   38.5650 O   0  0  0  0  0  0  0  0  0  0  0  0
   62.8780   44.0620   40.7140 N   0  0  0  0  0  0  0  0  0  0  0  0
   64.3420   41.2620   39.1240 C   0  0  0  0  0  0  0  0  0  0  0  0
  1  3  1  0
  3  4  1  0
  5  7  1  0
  5  2  1  0
  6  4  1  0
  7  1  1  0
  7  2  1  0
M  END
$$$$
