
     RDKit          3D

  7  8  0  0  0  0  0  0  0  0999 V2000
   69.0240   43.0970   40.3790 O   0  0  0  0  0  0  0  0  0  0  0  0
   70.1440   45.6830   39.7970 C   0  0  0  0  0  0  0  0  0  0  0  0
   70.4530   44.8370   41.0440 C   0  0  0  0  0  0  0  0  0  0  0  0
   69.6580   43.8060   41.2510 C   0  0  0  0  0  0  0  0  0  0  0  0
   70.2090   44.3720   42.2800 O   0  0  0  0  0  0  0  0  0  0  0  0
   68.5660   46.0740   40.3000 O   0  0  0  0  0  0  0  0  0  0  0  0
   71.0300   46.2520   40.9620 C   0  0  0  0  0  0  0  0  0  0  0  0
  1  4  2  0
  2  6  1  0
  2  7  1  0
  2  3  1  0
  3  7  1  0
  3  4  1  0
  3  5  1  0
  4  5  1  0
M  END
$$$$

     RDKit          3D

 12 11  0  0  0  0  0  0  0  0999 V2000
   66.3540   47.8450   39.8800 C   0  0  0  0  0  0  0  0  0  0  0  0
   69.8030   45.1800   40.9260 O   0  0  0  0  0  0  0  0  0  0  0  0
   67.3540   48.4260   39.0650 C   0  0  0  0  0  0  0  0  0  0  0  0
   67.7040   49.6300   39.5330 O   0  0  0  0  0  0  0  0  0  0  0  0
   67.9370   45.8420   42.5660 C   0  0  0  0  0  0  0  0  0  0  0  0
   66.7560   47.4060   41.0440 C   0  0  0  0  0  0  0  0  0  0  0  0
   64.1500   48.2460   39.1030 O   0  0  0  0  0  0  0  0  0  0  0  0
   67.3110   45.8400   41.0180 C   0  0  0  0  0  0  0  0  0  0  0  0
   66.1140   45.0640   41.3250 C   0  0  0  0  0  0  0  0  0  0  0  0
   67.8290   47.9280   38.0990 O   0  0  0  0  0  0  0  0  0  0  0  0
   68.7350   45.6440   40.1160 C   0  0  0  0  0  0  0  0  0  0  0  0
   65.0920   47.9650   39.4800 C   0  0  0  0  0  0  0  0  0  0  0  0
  1  6  1  0
  3  4  1  0
  3  1  1  0
  7 12  2  0
  8  6  1  0
  8  9  1  0
  8  5  1  0
 10  3  2  0
 11  2  1  0
 11  8  1  0
 12  1  2  0
M  END
$$$$

     RDKit          3D

  8  8  0  0  0  0  0  0  0  0999 V2000
   69.9920   46.4840   39.5260 S   0  0  0  0  0  0  0  0  0  0  0  0
   71.2830   45.3350   39.7610 C   0  0  0  0  0  0  0  0  0  0  0  0
   69.5300   47.6640   40.2130 O   0  0  0  0  0  0  0  0  0  0  0  0
   69.3200   43.9190   39.4930 C   0  0  0  0  0  0  0  0  0  0  0  0
   70.7460   43.9500   39.4100 C   0  0  0  0  0  0  0  0  0  0  0  0
   70.3540   46.8290   37.8850 N   0  0  0  0  0  0  0  0  0  0  0  0
   68.6340   45.2020   39.5190 C   0  0  0  0  0  0  0  0  0  0  0  0
   68.1560   45.2530   40.9440 N   0  0  0  0  0  0  0  0  0  0  0  0
  1  6  1  0
  1  2  1  0
  1  3  1  0
  4  7  1  0
  5  4  1  0
  5  2  1  0
  7  1  1  0
  7  8  1  0
M  END
$$$$

     RDKit          3D

 13 13  0  0  0  0  0  0  0  0999 V2000
   68.1240   45.0860   41.0090 C   0  0  0  0  0  0  0  0  0  0  0  0
   60.4900   46.4810   46.1180 C   0  0  0  0  0  0  0  0  0  0  0  0
   62.1140   47.4240   46.3090 C   0  0  0  0  0  0  0  0  0  0  0  0
   67.3420   44.3240   40.3530 C   0  0  0  0  0  0  0  0  0  0  0  0
   64.2290   47.2030   43.2420 C   0  0  0  0  0  0  0  0  0  0  0  0
   59.5290   47.8840   46.7190 C   0  0  0  0  0  0  0  0  0  0  0  0
   68.1150   46.6910   40.5220 O   0  0  0  0  0  0  0  0  0  0  0  0
   62.4180   47.2500   44.8130 O   0  0  0  0  0  0  0  0  0  0  0  0
   66.3290   46.0740   42.6560 C   0  0  0  0  0  0  0  0  0  0  0  0
   63.8950   47.3910   44.7440 C   0  0  0  0  0  0  0  0  0  0  0  0
   66.9110   44.6480   41.3040 C   0  0  0  0  0  0  0  0  0  0  0  0
   65.5890   46.4690   43.5500 C   0  0  0  0  0  0  0  0  0  0  0  0
   65.7350   45.6440   41.2610 C   0  0  0  0  0  0  0  0  0  0  0  0
  1  7  1  0
  1 11  1  0
  2  3  1  0
  2  6  1  0
  4  1  1  0
  4 11  1  0
  5 12  1  0
  5 10  1  0
  8  3  1  0
  9 12  1  0
 10  8  1  0
 11 13  1  0
 13  9  1  0
M  END
$$$$

     RDKit          3D

 15 15  0  0  0  0  0  0  0  0999 V2000
   65.0130   47.5520   43.2250 C   0  0  0  0  0  0  0  0  0  0  0  0
   67.8920   47.7550   40.3940 C   0  0  0  0  0  0  0  0  0  0  0  0
   65.0850   45.2950   43.0500 C   0  0  0  0  0  0  0  0  0  0  0  0
   66.7770   47.9180   41.0740 N   0  0  0  0  0  0  0  0  0  0  0  0
   65.2150   46.5120   42.4200 C   0  0  0  0  0  0  0  0  0  0  0  0
   67.8530   44.2640   39.9430 C   0  0  0  0  0  0  0  0  0  0  0  0
   64.4840   45.3180   44.3150 C   0  0  0  0  0  0  0  0  0  0  0  0
   63.9170   46.3250   44.8910 C   0  0  0  0  0  0  0  0  0  0  0  0
   65.6710   46.9900   41.0480 C   0  0  0  0  0  0  0  0  0  0  0  0
   63.8850   48.7610   45.3680 Cl  0  0  0  0  0  0  0  0  0  0  0  0
   68.4680   48.5820   39.7360 O   0  0  0  0  0  0  0  0  0  0  0  0
   67.4410   45.3600   40.5270 N   0  0  0  0  0  0  0  0  0  0  0  0
   69.3610   45.9970   39.6840 O   0  0  0  0  0  0  0  0  0  0  0  0
   64.3500   47.4200   44.3910 C   0  0  0  0  0  0  0  0  0  0  0  0
   68.3890   46.4200   40.3630 C   0  0  0  0  0  0  0  0  0  0  0  0
  1 14  2  0
  2  4  1  0
  3  7  2  0
  5  9  1  0
  5  3  1  0
  5  1  1  0
  6 12  1  0
  7  8  1  0
  9  4  1  0
 11  2  2  0
 13 15  2  0
 14  8  1  0
 14 10  1  0
 15  2  1  0
 15 12  1  0
M  END
$$$$

     RDKit          3D

 20 23  0  0  0  0  0  0  0  0999 V2000
   67.3640   52.3890   37.9680 C   0  0  0  0  0  0  0  0  0  0  0  0
   65.8700   46.2200   41.5520 C   0  0  0  0  0  0  0  0  0  0  0  0
   67.1850   42.8100   42.2340 C   0  0  0  0  0  0  0  0  0  0  0  0
   66.7830   45.0070   41.2840 C   0  0  0  0  0  0  0  0  0  0  0  0
   65.8970   50.4970   37.7500 C   0  0  0  0  0  0  0  0  0  0  0  0
   67.7030   50.7930   36.0870 C   0  0  0  0  0  0  0  0  0  0  0  0
   66.0480   47.7030   41.6230 N   0  0  0  0  0  0  0  0  0  0  0  0
   65.7600   52.1160   36.0920 C   0  0  0  0  0  0  0  0  0  0  0  0
   68.4380   40.8760   41.5970 C   0  0  0  0  0  0  0  0  0  0  0  0
   68.0210   40.7160   43.0180 C   0  0  0  0  0  0  0  0  0  0  0  0
   66.1730   47.1000   40.4040 C   0  0  0  0  0  0  0  0  0  0  0  0
   66.3460   43.7940   41.7500 N   0  0  0  0  0  0  0  0  0  0  0  0
   65.9140   48.5610   40.3800 C   0  0  0  0  0  0  0  0  0  0  0  0
   66.8390   51.5790   37.0060 N   0  0  0  0  0  0  0  0  0  0  0  0
   67.0240   41.8120   43.2630 C   0  0  0  0  0  0  0  0  0  0  0  0
   67.3800   49.0270   39.6920 C   0  0  0  0  0  0  0  0  0  0  0  0
   68.0190   42.2460   41.1100 C   0  0  0  0  0  0  0  0  0  0  0  0
   67.6940   51.5470   39.2110 C   0  0  0  0  0  0  0  0  0  0  0  0
   67.8380   39.4580   43.6340 C   0  0  0  0  0  0  0  0  0  0  0  0
   66.8560   50.1190   38.7730 C   0  0  0  0  0  0  0  0  0  0  0  0
  1 18  1  0
  2  4  1  0
  2  7  1  0
  3 12  1  0
  3 15  1  0
  4 12  1  0
  5 20  1  0
  6 14  1  0
  8 14  1  0
  9 10  1  0
 10 15  1  0
 10 19  1  0
 11  2  1  0
 11  7  1  0
 13 11  1  0
 13  7  1  0
 14  5  1  0
 14  1  1  0
 16 13  1  0
 17  9  1  0
 17  3  1  0
 20 18  1  0
 20 16  1  0
M  END
$$$$

     RDKit          3D

  5  5  0  0  0  0  0  0  0  0999 V2000
   68.9730   44.0720   39.9950 C   0  0  0  0  0  0  0  0  0  0  0  0
   69.8850   43.2890   41.2550 C   0  0  0  0  0  0  0  0  0  0  0  0
   68.5800   45.2150   40.3280 O   0  0  0  0  0  0  0  0  0  0  0  0
   68.8700   43.4250   38.6040 C   0  0  0  0  0  0  0  0  0  0  0  0
   70.6510   44.3050   40.3930 C   0  0  0  0  0  0  0  0  0  0  0  0
  1  3  1  0
  1  5  1  0
  1  2  1  0
  4  1  1  0
  5  2  1  0
M  END
$$$$

     RDKit          3D

 11 11  0  0  0  0  0  0  0  0999 V2000
   67.6120   47.2710   41.1800 C   0  0  0  0  0  0  0  0  0  0  0  0
   65.9960   48.9530   40.1400 C   0  0  0  0  0  0  0  0  0  0  0  0
   66.3110   48.0140   41.3210 C   0  0  0  0  0  0  0  0  0  0  0  0
   65.9610   46.4210   39.7080 O   0  0  0  0  0  0  0  0  0  0  0  0
   64.3920   44.2020   41.9290 O   0  0  0  0  0  0  0  0  0  0  0  0
   63.4860   45.4510   40.3380 O   0  0  0  0  0  0  0  0  0  0  0  0
   68.7460   48.2450   40.9680 O   0  0  0  0  0  0  0  0  0  0  0  0
   67.1200   46.3780   39.9650 C   0  0  0  0  0  0  0  0  0  0  0  0
   64.6820   48.9410   39.5600 O   0  0  0  0  0  0  0  0  0  0  0  0
   65.9480   45.4270   40.5210 C   0  0  0  0  0  0  0  0  0  0  0  0
   64.5170   45.0540   41.0100 C   0  0  0  0  0  0  0  0  0  0  0  0
  1  7  1  0
  1  3  1  0
  2  3  1  0
  4  8  1  0
  4 10  1  0
  6 11  2  0
  8 10  1  0
  8  1  1  0
  9  2  1  0
 10 11  1  0
 11  5  1  0
M  END
$$$$

     RDKit          3D

 20 19  0  0  0  0  0  0  0  0999 V2000
   69.6360   48.8100   37.9260 C   0  0  0  0  0  0  0  0  0  0  0  0
   69.1300   46.2100   40.4070 C   0  0  0  0  0  0  0  0  0  0  0  0
   68.6010   48.2200   38.8340 C   0  0  0  0  0  0  0  0  0  0  0  0
   62.6050   44.8830   46.3330 C   0  0  0  0  0  0  0  0  0  0  0  0
   63.4850   43.4910   41.8000 C   0  0  0  0  0  0  0  0  0  0  0  0
   69.4300   47.7060   40.1210 C   0  0  0  0  0  0  0  0  0  0  0  0
   70.5320   49.5880   38.4040 O   0  0  0  0  0  0  0  0  0  0  0  0
   66.9210   45.0230   41.1590 C   0  0  0  0  0  0  0  0  0  0  0  0
   63.0600   45.9410   43.5330 O   0  0  0  0  0  0  0  0  0  0  0  0
   70.0010   45.3270   39.5100 C   0  0  0  0  0  0  0  0  0  0  0  0
   67.6050   46.1420   40.4150 C   0  0  0  0  0  0  0  0  0  0  0  0
   66.8960   47.1810   40.3580 O   0  0  0  0  0  0  0  0  0  0  0  0
   63.4170   43.6390   43.2010 C   0  0  0  0  0  0  0  0  0  0  0  0
   64.5490   44.3560   41.2170 C   0  0  0  0  0  0  0  0  0  0  0  0
   70.0040   48.2720   36.8380 O   0  0  0  0  0  0  0  0  0  0  0  0
   62.6150   44.7080   43.7860 C   0  0  0  0  0  0  0  0  0  0  0  0
   61.2950   42.8950   44.8510 C   0  0  0  0  0  0  0  0  0  0  0  0
   65.3840   45.1870   41.2310 C   0  0  0  0  0  0  0  0  0  0  0  0
   61.9310   44.2800   45.0900 C   0  0  0  0  0  0  0  0  0  0  0  0
   69.5930   45.8170   41.9040 C   0  0  0  0  0  0  0  0  0  0  0  0
  1  7  1  0
  1  3  1  0
  2 11  1  0
  2 20  1  0
  3  6  1  0
  5 13  1  0
  6  2  1  0
  8 18  1  0
 10  2  1  0
 11  8  1  0
 12 11  2  0
 13 16  1  0
 14 18  1  0
 14  5  1  0
 15  1  2  0
 16  9  1  0
 16 19  1  0
 17 19  1  0
 19  4  1  0
M  END
$$$$

     RDKit          3D

  8  8  0  0  0  0  0  0  0  0999 V2000
   64.6320   44.6270   40.8870 C   0  0  0  0  0  0  0  0  0  0  0  0
   66.1040   44.5660   41.3570 C   0  0  0  0  0  0  0  0  0  0  0  0
   64.2560   45.6960   39.9870 O   0  0  0  0  0  0  0  0  0  0  0  0
   64.4170   45.3110   44.8800 C   0  0  0  0  0  0  0  0  0  0  0  0
   66.9210   45.4950   40.6390 O   0  0  0  0  0  0  0  0  0  0  0  0
   66.4950   43.2420   40.9710 O   0  0  0  0  0  0  0  0  0  0  0  0
   65.0830   44.7390   42.3430 C   0  0  0  0  0  0  0  0  0  0  0  0
   64.5630   45.7870   43.3870 C   0  0  0  0  0  0  0  0  0  0  0  0
  1  3  1  0
  1  2  1  0
  1  7  1  0
  2  7  1  0
  5  2  1  0
  6  2  1  0
  7  8  1  0
  8  4  1  0
M  END
$$$$

     RDKit          3D

  8  8  0  0  0  0  0  0  0  0999 V2000
   66.3550   44.8660   41.1270 C   0  0  0  0  0  0  0  0  0  0  0  0
   64.7710   46.0860   42.5470 C   0  0  0  0  0  0  0  0  0  0  0  0
   66.3620   43.4070   42.9400 C   0  0  0  0  0  0  0  0  0  0  0  0
   62.3870   46.5100   42.3950 O   0  0  0  0  0  0  0  0  0  0  0  0
   64.9720   45.4730   41.0980 C   0  0  0  0  0  0  0  0  0  0  0  0
   63.5230   46.8470   42.2690 C   0  0  0  0  0  0  0  0  0  0  0  0
   62.7360   47.5680   42.8490 O   0  0  0  0  0  0  0  0  0  0  0  0
   67.0140   44.7340   42.5730 C   0  0  0  0  0  0  0  0  0  0  0  0
  1  8  1  0
  4  7  1  0
  5  1  1  0
  5  2  1  0
  6  4  1  0
  6  2  1  0
  6  7  1  0
  8  3  1  0
M  END
$$$$

     RDKit          3D

 20 21  0  0  0  0  0  0  0  0999 V2000
   65.9900   47.6310   40.7720 C   0  0  0  0  0  0  0  0  0  0  0  0
   66.7850   49.4780   42.1500 C   0  0  0  0  0  0  0  0  0  0  0  0
   67.9530   48.2100   39.0210 C   0  0  0  0  0  0  0  0  0  0  0  0
   66.9320   48.6370   40.9460 C   0  0  0  0  0  0  0  0  0  0  0  0
   67.9050   48.8830   40.1000 N   0  0  0  0  0  0  0  0  0  0  0  0
   67.8730   49.9920   42.5670 O   0  0  0  0  0  0  0  0  0  0  0  0
   67.0440   44.6170   39.4500 O   0  0  0  0  0  0  0  0  0  0  0  0
   69.1570   48.4230   38.0310 C   0  0  0  0  0  0  0  0  0  0  0  0
   64.6700   45.0120   39.9550 N   0  0  0  0  0  0  0  0  0  0  0  0
   66.2770   46.7200   39.8120 C   0  0  0  0  0  0  0  0  0  0  0  0
   63.7320   44.4830   40.6910 C   0  0  0  0  0  0  0  0  0  0  0  0
   63.9360   44.1840   42.1780 C   0  0  0  0  0  0  0  0  0  0  0  0
   66.0940   45.0920   40.3650 C   0  0  0  0  0  0  0  0  0  0  0  0
   67.2930   42.7360   41.6870 C   0  0  0  0  0  0  0  0  0  0  0  0
   65.5070   43.3690   43.7830 C   0  0  0  0  0  0  0  0  0  0  0  0
   65.4350   42.1920   44.4060 N   0  0  0  0  0  0  0  0  0  0  0  0
   67.1140   47.1010   38.7480 C   0  0  0  0  0  0  0  0  0  0  0  0
   65.7850   49.2630   42.9400 O   0  0  0  0  0  0  0  0  0  0  0  0
   66.1970   43.8550   41.4520 C   0  0  0  0  0  0  0  0  0  0  0  0
   65.2540   43.8400   42.4190 C   0  0  0  0  0  0  0  0  0  0  0  0
  1  4  2  0
  2  6  2  0
  2 18  1  0
  3  5  2  0
  4  2  1  0
  5  4  1  0
  8  3  1  0
  9 13  1  0
  9 11  2  0
 10 17  1  0
 10 13  1  0
 10  1  1  0
 11 12  1  0
 12 20  1  0
 13  7  1  0
 13 19  1  0
 15 16  1  0
 17  3  1  0
 19 14  1  0
 19 20  1  0
 20 15  1  0
M  END
$$$$

     RDKit          3D

 11 11  0  0  0  0  0  0  0  0999 V2000
   67.3660   47.1940   41.0840 C   0  0  0  0  0  0  0  0  0  0  0  0
   67.5700   49.1470   42.3030 O   0  0  0  0  0  0  0  0  0  0  0  0
   66.8190   45.8210   41.0270 C   0  0  0  0  0  0  0  0  0  0  0  0
   67.6880   44.7460   41.1790 O   0  0  0  0  0  0  0  0  0  0  0  0
   65.6850   47.8300   39.5380 C   0  0  0  0  0  0  0  0  0  0  0  0
   65.6590   45.4650   40.1360 C   0  0  0  0  0  0  0  0  0  0  0  0
   67.8760   47.9140   42.0710 C   0  0  0  0  0  0  0  0  0  0  0  0
   65.1610   49.0560   39.2480 O   0  0  0  0  0  0  0  0  0  0  0  0
   67.2500   43.4150   41.3260 C   0  0  0  0  0  0  0  0  0  0  0  0
   66.9490   48.0820   39.9290 C   0  0  0  0  0  0  0  0  0  0  0  0
   65.0670   46.6550   39.5950 N   0  0  0  0  0  0  0  0  0  0  0  0
  1  7  1  0
  3  1  1  0
  3  4  1  0
  4  9  1  0
  5 11  1  0
  5 10  1  0
  6  3  1  0
  7  2  1  0
  8  5  2  0
 10  1  1  0
 11  6  1  0
M  END
$$$$

     RDKit          3D

  1  0  0  0  0  0  0  0  0  0999 V2000
   61.1330   45.7050   49.2860 C   0  0  0  0  0  0  0  0  0  0  0  0
M  END
$$$$

     RDKit          3D

 18 21  0  0  0  0  0  0  0  0999 V2000
   69.2960   42.1250   42.2510 C   0  0  0  0  0  0  0  0  0  0  0  0
   67.5250   48.1900   40.6410 C   0  0  0  0  0  0  0  0  0  0  0  0
   66.0880   44.0330   42.1200 N   0  0  0  0  0  0  0  0  0  0  0  0
   66.9160   47.1210   41.1190 N   0  0  0  0  0  0  0  0  0  0  0  0
   69.5610   44.0120   40.8420 C   0  0  0  0  0  0  0  0  0  0  0  0
   69.4470   45.3180   40.7010 C   0  0  0  0  0  0  0  0  0  0  0  0
   65.3840   45.0160   41.5250 C   0  0  0  0  0  0  0  0  0  0  0  0
   70.0940   42.8620   41.5840 C   0  0  0  0  0  0  0  0  0  0  0  0
   65.5760   48.6870   42.3020 N   0  0  0  0  0  0  0  0  0  0  0  0
   70.2640   46.3270   39.8760 C   0  0  0  0  0  0  0  0  0  0  0  0
   68.3630   44.4660   41.1260 N   0  0  0  0  0  0  0  0  0  0  0  0
   67.0810   49.4500   40.6250 N   0  0  0  0  0  0  0  0  0  0  0  0
   68.0060   42.6180   42.4920 C   0  0  0  0  0  0  0  0  0  0  0  0
   69.0700   47.8800   39.8010 S   0  0  0  0  0  0  0  0  0  0  0  0
   66.2110   49.7660   41.6100 C   0  0  0  0  0  0  0  0  0  0  0  0
   67.4580   43.7610   41.8990 C   0  0  0  0  0  0  0  0  0  0  0  0
   65.1590   46.1910   42.4850 C   0  0  0  0  0  0  0  0  0  0  0  0
   65.8650   47.3940   41.9210 C   0  0  0  0  0  0  0  0  0  0  0  0
  1 13  1  0
  2  4  2  0
  4 18  2  0
  5 11  1  0
  5  8  1  0
  6 10  1  0
  6  5  1  0
  6 11  1  0
  7  3  1  0
  7 17  1  0
  8  1  2  0
 11 16  1  0
 12  2  1  0
 12 15  1  0
 14 10  1  0
 14  2  1  0
 15  9  2  0
 16  3  1  0
 16 13  2  0
 18  9  1  0
 18 17  1  0
M  END
$$$$

     RDKit          3D

  9  9  0  0  0  0  0  0  0  0999 V2000
   66.7660   44.1130   39.1200 C   0  0  0  0  0  0  0  0  0  0  0  0
   68.0030   44.8330   40.9540 N   0  0  0  0  0  0  0  0  0  0  0  0
   67.6940   42.9220   38.7770 C   0  0  0  0  0  0  0  0  0  0  0  0
   68.1090   44.6940   42.9070 O   0  0  0  0  0  0  0  0  0  0  0  0
   68.2100   46.1330   41.1720 O   0  0  0  0  0  0  0  0  0  0  0  0
   67.4870   41.4700   39.2890 O   0  0  0  0  0  0  0  0  0  0  0  0
   67.8160   45.2300   41.7210 N   0  0  0  0  0  0  0  0  0  0  0  0
   69.2650   42.7900   40.6300 O   0  0  0  0  0  0  0  0  0  0  0  0
   68.0890   43.7970   39.9340 C   0  0  0  0  0  0  0  0  0  0  0  0
  1  9  1  0
  2  7  1  0
  3  1  1  0
  3  6  1  0
  3  9  1  0
  5  7  1  0
  7  4  1  0
  9  8  1  0
  9  2  1  0
M  END
$$$$

     RDKit          3D

 12 11  0  0  0  0  0  0  0  0999 V2000
   65.1940   46.6350   38.9270 C   0  0  0  0  0  0  0  0  0  0  0  0
   66.3100   46.3610   38.2490 C   0  0  0  0  0  0  0  0  0  0  0  0
   67.6290   45.6300   38.8690 C   0  0  0  0  0  0  0  0  0  0  0  0
   68.0990   45.1950   41.4270 P   0  0  0  0  0  0  0  0  0  0  0  0
   68.0460   46.1600   40.1310 O   0  0  0  0  0  0  0  0  0  0  0  0
   64.0580   46.8220   40.8540 O   0  0  0  0  0  0  0  0  0  0  0  0
   68.0100   43.5620   40.9730 O   0  0  0  0  0  0  0  0  0  0  0  0
   65.5250   47.2410   41.2600 O   0  0  0  0  0  0  0  0  0  0  0  0
   66.8770   44.6780   41.7940 O   0  0  0  0  0  0  0  0  0  0  0  0
   69.2770   45.4760   42.1430 O   0  0  0  0  0  0  0  0  0  0  0  0
   64.5140   47.8660   38.2890 O   0  0  0  0  0  0  0  0  0  0  0  0
   65.0880   46.8250   40.3390 C   0  0  0  0  0  0  0  0  0  0  0  0
  1 11  1  0
  1 12  1  0
  2  3  1  0
  2  1  1  0
  3  5  1  0
  4  9  1  0
  4 10  1  0
  5  4  1  0
  7  4  2  0
 12  6  2  0
 12  8  1  0
M  END
$$$$

     RDKit          3D

  5  4  0  0  0  0  0  0  0  0999 V2000
   64.1990   47.9850   44.1000 O   0  0  0  0  0  0  0  0  0  0  0  0
   65.0990   46.9930   42.6030 C   0  0  0  0  0  0  0  0  0  0  0  0
   66.5510   48.9860   42.8760 N   0  0  0  0  0  0  0  0  0  0  0  0
   65.4140   49.1150   43.5500 C   0  0  0  0  0  0  0  0  0  0  0  0
   64.6890   47.9610   43.7110 C   0  0  0  0  0  0  0  0  0  0  0  0
  2  5  1  0
  3  4  2  0
  4  5  1  0
  5  1  2  0
M  END
$$$$

     RDKit          3D

 10  9  0  0  0  0  0  0  0  0999 V2000
   70.4730   42.2830   41.1520 C   0  0  0  0  0  0  0  0  0  0  0  0
   69.6220   43.0420   42.0030 C   0  0  0  0  0  0  0  0  0  0  0  0
   71.1400   41.2120   42.0840 C   0  0  0  0  0  0  0  0  0  0  0  0
   67.2760   45.8190   40.8370 C   0  0  0  0  0  0  0  0  0  0  0  0
   65.8370   48.5650   41.3860 O   0  0  0  0  0  0  0  0  0  0  0  0
   65.4390   47.7380   40.7280 C   0  0  0  0  0  0  0  0  0  0  0  0
   68.3970   43.9380   41.9240 C   0  0  0  0  0  0  0  0  0  0  0  0
   67.7170   44.3340   40.5590 C   0  0  0  0  0  0  0  0  0  0  0  0
   66.2250   46.5660   38.8480 N   0  0  0  0  0  0  0  0  0  0  0  0
   66.3140   46.6420   40.0140 C   0  0  0  0  0  0  0  0  0  0  0  0
  1  2  1  0
  1  3  1  0
  6  5  2  0
  7  2  2  3
  8  4  1  0
  8  7  1  0
  9 10  2  0
 10  6  1  0
 10  4  1  0
M  END
$$$$

     RDKit          3D

 14 14  0  0  0  0  0  0  0  0999 V2000
   67.7860   45.5000   38.4780 C   0  0  0  0  0  0  0  0  0  0  0  0
   68.9270   43.2800   39.4820 P   0  0  0  0  0  0  0  0  0  0  0  0
   65.7880   48.9680   42.8020 C   0  0  0  0  0  0  0  0  0  0  0  0
   66.9130   46.6860   38.8680 S   0  0  0  0  0  0  0  0  0  0  0  0
   66.4600   46.4580   40.4060 C   0  0  0  0  0  0  0  0  0  0  0  0
   68.3950   41.8030   39.8680 O   0  0  0  0  0  0  0  0  0  0  0  0
   65.5950   47.1240   41.2290 C   0  0  0  0  0  0  0  0  0  0  0  0
   69.8390   44.2150   40.0850 O   0  0  0  0  0  0  0  0  0  0  0  0
   67.3320   44.2500   39.3250 C   0  0  0  0  0  0  0  0  0  0  0  0
   64.2540   46.5690   43.2260 C   0  0  0  0  0  0  0  0  0  0  0  0
   65.4710   47.4210   42.7210 C   0  0  0  0  0  0  0  0  0  0  0  0
   69.7720   43.2210   38.1920 O   0  0  0  0  0  0  0  0  0  0  0  0
   64.6580   47.9030   40.5470 O   0  0  0  0  0  0  0  0  0  0  0  0
   66.6930   44.8170   40.9020 S   0  0  0  0  0  0  0  0  0  0  0  0
  1  4  1  0
  1  9  1  0
  2  6  1  0
  2  8  1  0
  4  5  1  0
  5 14  1  0
  5  7  1  0
  7 13  1  0
  7 11  1  0
  9  2  1  0
  9 14  1  0
 11  3  1  0
 11 10  1  0
 12  2  2  0
M  END
$$$$
