
     RDKit          3D

  7  6  0  0  0  0  0  0  0  0999 V2000
   67.2090   49.7700   36.4710 O   0  0  0  0  0  0  0  0  0  0  0  0
   63.9550   47.9140   36.5360 C   0  0  0  0  0  0  0  0  0  0  0  0
   65.3560   48.2290   36.4200 C   0  0  0  0  0  0  0  0  0  0  0  0
   66.4700   49.3980   38.4810 C   0  0  0  0  0  0  0  0  0  0  0  0
   65.5470   47.1450   35.9310 O   0  0  0  0  0  0  0  0  0  0  0  0
   65.4970   49.0440   38.9550 O   0  0  0  0  0  0  0  0  0  0  0  0
   66.0940   49.3630   36.9640 C   0  0  0  0  0  0  0  0  0  0  0  0
  3  2  1  0
  3  7  1  0
  4  6  1  0
  5  3  2  0
  7  1  1  0
  7  4  1  0
M  END
$$$$

     RDKit          3D

  6  5  0  0  0  0  0  0  0  0999 V2000
   61.0530   46.9600   37.1480 C   0  0  0  0  0  0  0  0  0  0  0  0
   61.5780   47.7490   36.3320 O   0  0  0  0  0  0  0  0  0  0  0  0
   61.6540   46.6490   38.4330 C   0  0  0  0  0  0  0  0  0  0  0  0
   59.9090   45.0960   39.1880 O   0  0  0  0  0  0  0  0  0  0  0  0
   60.6160   46.0300   39.3600 C   0  0  0  0  0  0  0  0  0  0  0  0
   59.8900   46.7010   36.8710 O   0  0  0  0  0  0  0  0  0  0  0  0
  1  3  1  0
  2  1  2  0
  3  5  1  0
  4  5  2  0
  6  1  1  0
M  END
$$$$

     RDKit          3D

 22 23  0  0  0  0  0  0  0  0999 V2000
   66.9630   42.9720   30.3710 C   0  0  0  0  0  0  0  0  0  0  0  0
   67.9550   42.8890   29.1320 C   0  0  0  0  0  0  0  0  0  0  0  0
   67.3640   43.2660   31.4450 O   0  0  0  0  0  0  0  0  0  0  0  0
   63.4400   44.0720   32.5470 N   0  0  0  0  0  0  0  0  0  0  0  0
   64.6240   44.1470   34.7580 C   0  0  0  0  0  0  0  0  0  0  0  0
   60.7610   43.6480   37.4100 N   0  0  0  0  0  0  0  0  0  0  0  0
   64.2280   44.1460   38.3580 C   0  0  0  0  0  0  0  0  0  0  0  0
   62.9450   43.7790   38.5830 C   0  0  0  0  0  0  0  0  0  0  0  0
   62.6840   43.7590   40.0840 C   0  0  0  0  0  0  0  0  0  0  0  0
   62.7730   43.9980   36.2990 N   0  0  0  0  0  0  0  0  0  0  0  0
   65.3720   42.9490   30.0100 C   0  0  0  0  0  0  0  0  0  0  0  0
   65.3320   40.5140   29.4600 O   0  0  0  0  0  0  0  0  0  0  0  0
   63.5590   44.2290   31.1770 C   0  0  0  0  0  0  0  0  0  0  0  0
   64.8560   43.6070   37.2130 C   0  0  0  0  0  0  0  0  0  0  0  0
   64.7100   41.6770   29.1150 S   0  0  0  0  0  0  0  0  0  0  0  0
   64.3090   43.5860   33.3760 C   0  0  0  0  0  0  0  0  0  0  0  0
   64.2450   41.6340   27.6120 C   0  0  0  0  0  0  0  0  0  0  0  0
   65.6020   43.3000   33.1690 O   0  0  0  0  0  0  0  0  0  0  0  0
   62.1010   43.8880   37.4200 C   0  0  0  0  0  0  0  0  0  0  0  0
   63.3960   41.9310   28.7910 O   0  0  0  0  0  0  0  0  0  0  0  0
   64.5470   43.9790   30.3990 C   0  0  0  0  0  0  0  0  0  0  0  0
   64.3050   43.8320   36.1170 C   0  0  0  0  0  0  0  0  0  0  0  0
  1  3  2  0
  2  1  1  0
  4 16  1  0
  5 22  1  0
  6 19  1  0
  7  8  1  0
  8  9  1  0
 10 19  1  0
 11  1  1  0
 11 21  1  0
 13  4  2  3
 14  7  2  0
 15 12  1  0
 15 11  1  0
 16  5  1  0
 17 20  1  0
 17 15  1  0
 18 16  2  0
 19  8  2  0
 20 15  1  0
 21 13  1  0
 22 10  2  0
 22 14  1  0
M  END
$$$$

     RDKit          3D

 18 17  0  0  0  0  0  0  0  0999 V2000
   65.0260   43.8780   33.0870 N   0  0  0  0  0  0  0  0  0  0  0  0
   66.4820   40.5520   28.5760 C   0  0  0  0  0  0  0  0  0  0  0  0
   64.6750   45.0440   34.2830 C   0  0  0  0  0  0  0  0  0  0  0  0
   66.0260   42.9460   32.7840 C   0  0  0  0  0  0  0  0  0  0  0  0
   65.2100   39.3440   29.1490 C   0  0  0  0  0  0  0  0  0  0  0  0
   67.2240   42.9230   33.2330 O   0  0  0  0  0  0  0  0  0  0  0  0
   66.3940   38.0300   27.3190 O   0  0  0  0  0  0  0  0  0  0  0  0
   65.0870   44.1710   34.8960 C   0  0  0  0  0  0  0  0  0  0  0  0
   66.4880   40.9420   31.2790 C   0  0  0  0  0  0  0  0  0  0  0  0
   65.9650   40.4160   27.2040 N   0  0  0  0  0  0  0  0  0  0  0  0
   66.5480   42.5830   29.7970 O   0  0  0  0  0  0  0  0  0  0  0  0
   66.0920   41.2380   29.8510 C   0  0  0  0  0  0  0  0  0  0  0  0
   65.9290   43.2860   29.1090 N   0  0  0  0  0  0  0  0  0  0  0  0
   66.3140   39.0890   26.6530 C   0  0  0  0  0  0  0  0  0  0  0  0
   66.1530   43.6660   27.7260 C   0  0  0  0  0  0  0  0  0  0  0  0
   65.8370   42.0530   31.9220 N   0  0  0  0  0  0  0  0  0  0  0  0
   64.2380   38.8650   28.1550 C   0  0  0  0  0  0  0  0  0  0  0  0
   64.6720   45.3370   35.7700 C   0  0  0  0  0  0  0  0  0  0  0  0
  1  3  1  0
  2  5  1  0
  2 12  1  0
  3  8  1  0
  4  1  1  0
  4  6  2  0
  8 18  1  0
  9 16  1  0
 10  2  1  0
 11 12  1  0
 12  9  1  0
 13 11  1  0
 14 10  1  0
 14  7  2  0
 15 13  1  0
 16  4  1  0
 17  5  1  0
M  END
$$$$

     RDKit          3D

 20 20  0  0  0  0  0  0  0  0999 V2000
   65.9880   42.3340   31.4450 N   0  0  0  0  0  0  0  0  0  0  0  0
   70.3300   41.1510   31.1970 C   0  0  0  0  0  0  0  0  0  0  0  0
   65.0410   43.7570   33.2720 C   0  0  0  0  0  0  0  0  0  0  0  0
   64.1890   44.5100   33.8300 O   0  0  0  0  0  0  0  0  0  0  0  0
   68.8240   43.1710   32.0300 C   0  0  0  0  0  0  0  0  0  0  0  0
   69.1860   42.1090   30.9780 C   0  0  0  0  0  0  0  0  0  0  0  0
   61.5230   46.0050   37.2370 S   0  0  0  0  0  0  0  0  0  0  0  0
   65.9490   43.5310   33.9030 O   0  0  0  0  0  0  0  0  0  0  0  0
   70.9130   41.2660   32.6630 C   0  0  0  0  0  0  0  0  0  0  0  0
   64.2700   43.5600   31.2920 O   0  0  0  0  0  0  0  0  0  0  0  0
   66.8220   41.3540   30.6280 C   0  0  0  0  0  0  0  0  0  0  0  0
   61.9340   44.7530   36.7960 C   0  0  0  0  0  0  0  0  0  0  0  0
   70.0180   41.8600   33.6990 C   0  0  0  0  0  0  0  0  0  0  0  0
   63.8290   44.2720   35.1680 C   0  0  0  0  0  0  0  0  0  0  0  0
   65.0780   43.1350   31.9750 C   0  0  0  0  0  0  0  0  0  0  0  0
   59.9880   46.0630   36.0590 O   0  0  0  0  0  0  0  0  0  0  0  0
   61.5290   47.0570   37.7630 O   0  0  0  0  0  0  0  0  0  0  0  0
   67.9770   42.0280   29.9420 C   0  0  0  0  0  0  0  0  0  0  0  0
   69.4670   43.1960   33.3800 C   0  0  0  0  0  0  0  0  0  0  0  0
   62.6240   44.4760   35.5900 C   0  0  0  0  0  0  0  0  0  0  0  0
  1 15  1  0
  2  9  1  0
  3  4  1  0
  3  8  2  0
  4 14  1  0
  5 19  1  0
  6  2  1  0
  6  5  1  0
  7 16  1  0
  7 17  2  0
  9 13  1  0
 10 15  2  0
 11  1  1  0
 12  7  1  0
 14 20  1  0
 15  3  1  0
 18 11  1  0
 18  6  1  0
 19 13  1  0
 20 12  1  0
M  END
$$$$

     RDKit          3D

  8  7  0  0  0  0  0  0  0  0999 V2000
   68.0040   40.0620   32.2250 C   0  0  0  0  0  0  0  0  0  0  0  0
   68.8130   41.4470   33.8900 C   0  0  0  0  0  0  0  0  0  0  0  0
   66.7590   39.9560   33.4430 O   0  0  0  0  0  0  0  0  0  0  0  0
   69.2840   40.7950   32.5960 C   0  0  0  0  0  0  0  0  0  0  0  0
   67.6370   39.6540   30.6640 C   0  0  0  0  0  0  0  0  0  0  0  0
   68.1140   40.0190   29.9500 O   0  0  0  0  0  0  0  0  0  0  0  0
   69.1240   40.3870   34.9370 O   0  0  0  0  0  0  0  0  0  0  0  0
   67.0570   38.5060   30.7160 O   0  0  0  0  0  0  0  0  0  0  0  0
  1  4  1  0
  1  3  1  0
  2  7  1  0
  4  2  1  0
  5  8  1  0
  5  1  1  0
  6  5  2  0
M  END
$$$$

     RDKit          3D

 12 12  0  0  0  0  0  0  0  0999 V2000
   67.7420   39.0390   32.7610 C   0  0  0  0  0  0  0  0  0  0  0  0
   67.1560   41.5920   33.5400 C   0  0  0  0  0  0  0  0  0  0  0  0
   68.6550   39.7860   33.7640 C   0  0  0  0  0  0  0  0  0  0  0  0
   68.8500   40.6290   35.0880 C   0  0  0  0  0  0  0  0  0  0  0  0
   69.7390   41.5650   35.8700 C   0  0  0  0  0  0  0  0  0  0  0  0
   66.4470   42.6980   33.8500 C   0  0  0  0  0  0  0  0  0  0  0  0
   64.8850   44.1080   33.0750 O   0  0  0  0  0  0  0  0  0  0  0  0
   66.2400   43.3630   31.7210 O   0  0  0  0  0  0  0  0  0  0  0  0
   68.0210   41.0240   34.1790 C   0  0  0  0  0  0  0  0  0  0  0  0
   65.9080   43.5130   33.0260 C   0  0  0  0  0  0  0  0  0  0  0  0
   67.6580   39.3150   31.4040 O   0  0  0  0  0  0  0  0  0  0  0  0
   69.9100   39.5720   33.8240 O   0  0  0  0  0  0  0  0  0  0  0  0
  1  3  1  0
  2  6  1  0
  2  9  2  3
  3 12  1  0
  3  9  1  0
  3  4  1  0
  4  5  1  0
  8 10  2  0
  9  4  1  0
 10  7  1  0
 10  6  1  0
 11  1  1  0
M  END
$$$$

     RDKit          3D

 11 11  0  0  0  0  0  0  0  0999 V2000
   67.2000   42.2870   33.8270 C   0  0  0  0  0  0  0  0  0  0  0  0
   65.2900   43.2250   32.5720 C   0  0  0  0  0  0  0  0  0  0  0  0
   68.2570   42.3600   34.9450 C   0  0  0  0  0  0  0  0  0  0  0  0
   66.5360   38.6820   32.0590 N   0  0  0  0  0  0  0  0  0  0  0  0
   64.2450   39.1590   32.2270 O   0  0  0  0  0  0  0  0  0  0  0  0
   68.7480   43.7520   35.1140 N   0  0  0  0  0  0  0  0  0  0  0  0
   66.2470   43.4080   33.6500 C   0  0  0  0  0  0  0  0  0  0  0  0
   64.5760   41.8940   32.7590 C   0  0  0  0  0  0  0  0  0  0  0  0
   65.6490   40.8620   32.6690 C   0  0  0  0  0  0  0  0  0  0  0  0
   65.2580   39.6480   32.1150 C   0  0  0  0  0  0  0  0  0  0  0  0
   66.9100   41.1080   33.1610 C   0  0  0  0  0  0  0  0  0  0  0  0
  1  3  1  0
  2  8  1  0
  2  7  1  0
  3  6  1  0
  4 10  1  0
  7  1  1  0
  9  8  1  0
  9 11  2  0
 10  5  2  0
 10  9  1  0
 11  1  1  0
M  END
$$$$

     RDKit          3D

 12 12  0  0  0  0  0  0  0  0999 V2000
   63.6770   46.3420   34.6930 O   0  0  0  0  0  0  0  0  0  0  0  0
   62.6040   44.4610   33.4590 N   0  0  0  0  0  0  0  0  0  0  0  0
   62.5360   41.7910   31.1540 C   0  0  0  0  0  0  0  0  0  0  0  0
   61.2090   46.3310   34.6280 O   0  0  0  0  0  0  0  0  0  0  0  0
   63.2110   39.4430   30.1290 C   0  0  0  0  0  0  0  0  0  0  0  0
   62.3460   46.1980   33.6220 P   0  0  0  0  0  0  0  0  0  0  0  0
   63.0640   40.5700   30.9580 O   0  0  0  0  0  0  0  0  0  0  0  0
   62.1890   42.2290   32.4480 C   0  0  0  0  0  0  0  0  0  0  0  0
   62.3450   43.5680   32.3270 C   0  0  0  0  0  0  0  0  0  0  0  0
   62.5620   43.8990   30.9530 C   0  0  0  0  0  0  0  0  0  0  0  0
   62.4900   47.0370   32.5420 O   0  0  0  0  0  0  0  0  0  0  0  0
   62.3160   42.8500   30.1940 N   0  0  0  0  0  0  0  0  0  0  0  0
  2  6  1  0
  3  8  1  0
  5  7  1  0
  6  4  1  0
  6  1  1  0
  7  3  1  0
  9  8  1  0
  9  2  1  0
 10  9  1  0
 11  6  2  0
 12 10  1  0
 12  3  2  0
M  END
$$$$

     RDKit          3D

  7  6  0  0  0  0  0  0  0  0999 V2000
   58.1360   45.1590   29.8470 O   0  0  0  0  0  0  0  0  0  0  0  0
   59.4260   45.3620   29.4460 C   0  0  0  0  0  0  0  0  0  0  0  0
   61.7510   45.1270   28.6700 C   0  0  0  0  0  0  0  0  0  0  0  0
   62.2740   44.9820   29.8530 O   0  0  0  0  0  0  0  0  0  0  0  0
   60.3120   44.5250   28.6570 C   0  0  0  0  0  0  0  0  0  0  0  0
   62.8560   44.0700   27.9430 C   0  0  0  0  0  0  0  0  0  0  0  0
   62.3670   45.3680   27.9070 O   0  0  0  0  0  0  0  0  0  0  0  0
  2  1  1  0
  3  4  2  0
  5  3  1  0
  5  2  1  0
  7  6  1  0
  7  3  1  0
M  END
$$$$

     RDKit          3D

 13 13  0  0  0  0  0  0  0  0999 V2000
   66.2880   43.6230   36.9850 C   0  0  0  0  0  0  0  0  0  0  0  0
   66.4290   42.4930   39.4580 S   0  0  0  0  0  0  0  0  0  0  0  0
   64.8050   44.9350   38.9760 S   0  0  0  0  0  0  0  0  0  0  0  0
   66.0320   43.5030   33.5140 N   0  0  0  0  0  0  0  0  0  0  0  0
   67.4730   42.6410   36.6340 C   0  0  0  0  0  0  0  0  0  0  0  0
   63.4730   45.8490   39.9020 C   0  0  0  0  0  0  0  0  0  0  0  0
   66.0650   43.8050   38.3370 C   0  0  0  0  0  0  0  0  0  0  0  0
   65.5820   44.3020   35.8940 C   0  0  0  0  0  0  0  0  0  0  0  0
   64.2600   46.1370   35.2510 O   0  0  0  0  0  0  0  0  0  0  0  0
   64.7650   45.4550   36.1570 C   0  0  0  0  0  0  0  0  0  0  0  0
   65.8180   43.9430   34.6000 C   0  0  0  0  0  0  0  0  0  0  0  0
   65.4900   44.8770   40.4410 O   0  0  0  0  0  0  0  0  0  0  0  0
   64.4760   45.9740   37.5620 C   0  0  0  0  0  0  0  0  0  0  0  0
  1  7  1  0
  3  6  1  0
  3 12  1  0
  4 11  3  0
  5  1  1  0
  7  3  1  0
  7  2  2  0
  8 10  1  0
  8  1  2  0
  9 10  2  0
 10 13  1  0
 11  8  1  0
 13  3  1  0
M  END
$$$$

     RDKit          3D

 28 29  0  0  0  0  0  0  0  0999 V2000
   62.3140   48.1770   36.9760 C   0  0  0  0  0  0  0  0  0  0  0  0
   69.6730   38.7440   30.7640 C   0  0  0  0  0  0  0  0  0  0  0  0
   65.1850   44.1370   33.8940 N   0  0  0  0  0  0  0  0  0  0  0  0
   64.4200   45.7430   35.7160 N   0  0  0  0  0  0  0  0  0  0  0  0
   66.3450   44.8660   37.5800 S   0  0  0  0  0  0  0  0  0  0  0  0
   68.9800   37.8410   29.7580 C   0  0  0  0  0  0  0  0  0  0  0  0
   67.3370   39.1940   30.5500 N   0  0  0  0  0  0  0  0  0  0  0  0
   60.9800   50.8100   36.4490 N   0  0  0  0  0  0  0  0  0  0  0  0
   66.9530   43.4150   35.1480 O   0  0  0  0  0  0  0  0  0  0  0  0
   68.3880   39.0140   31.5960 C   0  0  0  0  0  0  0  0  0  0  0  0
   66.4330   42.3600   32.2590 C   0  0  0  0  0  0  0  0  0  0  0  0
   66.4560   40.0280   29.9050 C   0  0  0  0  0  0  0  0  0  0  0  0
   65.1650   42.8350   31.9950 N   0  0  0  0  0  0  0  0  0  0  0  0
   67.0720   41.4780   31.7340 C   0  0  0  0  0  0  0  0  0  0  0  0
   64.5150   46.8260   36.6640 C   0  0  0  0  0  0  0  0  0  0  0  0
   60.2790   49.6720   36.4140 C   0  0  0  0  0  0  0  0  0  0  0  0
   62.9080   48.9350   35.7900 C   0  0  0  0  0  0  0  0  0  0  0  0
   67.5400   43.2290   32.6820 C   0  0  0  0  0  0  0  0  0  0  0  0
   65.2180   44.6560   36.1990 C   0  0  0  0  0  0  0  0  0  0  0  0
   66.7390   38.3700   28.3870 N   0  0  0  0  0  0  0  0  0  0  0  0
   64.0260   44.7960   32.1180 O   0  0  0  0  0  0  0  0  0  0  0  0
   64.8200   43.8170   32.9470 C   0  0  0  0  0  0  0  0  0  0  0  0
   60.8750   48.3880   36.8080 C   0  0  0  0  0  0  0  0  0  0  0  0
   66.3260   41.4510   30.2580 C   0  0  0  0  0  0  0  0  0  0  0  0
   65.7200   39.1370   29.1560 C   0  0  0  0  0  0  0  0  0  0  0  0
   65.9480   43.9820   35.0900 C   0  0  0  0  0  0  0  0  0  0  0  0
   63.1930   47.0420   37.2230 C   0  0  0  0  0  0  0  0  0  0  0  0
   67.6210   38.3720   29.4880 C   0  0  0  0  0  0  0  0  0  0  0  0
  1 17  1  0
  1 27  1  0
  2 10  1  0
  3 26  1  0
  4 19  1  0
  4 15  1  0
  6  2  1  0
  7 10  1  0
 11 18  1  0
 12 24  1  0
 12  7  1  0
 13 11  1  0
 13 22  1  0
 14 11  1  0
 15 27  1  0
 16  8  1  0
 16 23  2  3
 19  5  1  0
 20 25  1  0
 20 28  1  0
 21 22  2  0
 22  3  1  0
 23  1  1  0
 24 14  1  0
 25 12  1  0
 26  9  2  0
 26 19  1  0
 28  6  1  0
 28  7  1  0
M  END
$$$$

     RDKit          3D

  5  4  0  0  0  0  0  0  0  0999 V2000
   61.5830   40.8870   33.4280 C   0  0  0  0  0  0  0  0  0  0  0  0
   62.1870   42.1240   35.8940 C   0  0  0  0  0  0  0  0  0  0  0  0
   63.2480   40.3700   34.1040 C   0  0  0  0  0  0  0  0  0  0  0  0
   63.9530   38.8850   33.5010 Cl  0  0  0  0  0  0  0  0  0  0  0  0
   62.9390   41.1730   35.5900 C   0  0  0  0  0  0  0  0  0  0  0  0
  3  1  1  0
  3  5  1  0
  4  3  1  0
  5  2  2  0
M  END
$$$$

     RDKit          3D

  7  8  0  0  0  0  0  0  0  0999 V2000
   64.3940   43.5630   34.3170 C   0  0  0  0  0  0  0  0  0  0  0  0
   65.3060   43.3790   36.4230 O   0  0  0  0  0  0  0  0  0  0  0  0
   66.8140   42.8910   34.2690 C   0  0  0  0  0  0  0  0  0  0  0  0
   65.5220   42.8000   35.2880 S   0  0  0  0  0  0  0  0  0  0  0  0
   65.7820   40.8010   35.2210 C   0  0  0  0  0  0  0  0  0  0  0  0
   67.8290   41.9620   33.0150 S   0  0  0  0  0  0  0  0  0  0  0  0
   65.6630   43.2550   33.3750 C   0  0  0  0  0  0  0  0  0  0  0  0
  1  4  1  0
  3  6  1  0
  3  4  1  0
  4  2  1  0
  5  4  1  0
  7  3  1  0
  7  1  1  0
  7  4  1  0
M  END
$$$$

     RDKit          3D

 23 26  0  0  0  0  0  0  0  0999 V2000
   64.0720   43.9190   33.2740 C   0  0  0  0  0  0  0  0  0  0  0  0
   66.2990   45.4090   38.6700 C   0  0  0  0  0  0  0  0  0  0  0  0
   64.6670   47.1460   38.7370 O   0  0  0  0  0  0  0  0  0  0  0  0
   62.9700   45.0790   35.2290 C   0  0  0  0  0  0  0  0  0  0  0  0
   64.2500   45.0380   35.8220 C   0  0  0  0  0  0  0  0  0  0  0  0
   65.4330   44.3870   35.2910 C   0  0  0  0  0  0  0  0  0  0  0  0
   62.5490   43.2840   31.1570 C   0  0  0  0  0  0  0  0  0  0  0  0
   62.6080   42.3330   29.5060 S   0  0  0  0  0  0  0  0  0  0  0  0
   62.9710   44.4600   34.0250 C   0  0  0  0  0  0  0  0  0  0  0  0
   64.3020   41.7640   29.7680 C   0  0  0  0  0  0  0  0  0  0  0  0
   62.2140   47.2590   36.4690 O   0  0  0  0  0  0  0  0  0  0  0  0
   63.8760   43.1340   31.9380 C   0  0  0  0  0  0  0  0  0  0  0  0
   63.8190   44.9380   39.0760 O   0  0  0  0  0  0  0  0  0  0  0  0
   61.9760   45.9220   35.9600 C   0  0  0  0  0  0  0  0  0  0  0  0
   64.6880   42.1720   30.9850 C   0  0  0  0  0  0  0  0  0  0  0  0
   66.2990   41.0890   29.8960 N   0  0  0  0  0  0  0  0  0  0  0  0
   66.8730   43.2020   33.5930 Cl  0  0  0  0  0  0  0  0  0  0  0  0
   64.7490   45.6570   38.3760 S   0  0  0  0  0  0  0  0  0  0  0  0
   65.9450   41.7240   31.0110 C   0  0  0  0  0  0  0  0  0  0  0  0
   65.4260   43.8740   34.0440 C   0  0  0  0  0  0  0  0  0  0  0  0
   61.3320   47.1150   35.3000 C   0  0  0  0  0  0  0  0  0  0  0  0
   65.2310   40.9270   29.1620 C   0  0  0  0  0  0  0  0  0  0  0  0
   64.4780   45.6270   37.0420 N   0  0  0  0  0  0  0  0  0  0  0  0
  1  9  2  0
  1 20  1  0
  4  5  2  0
  5 23  1  0
  6  5  1  0
  7 12  2  0
  8 10  1  0
  8  7  1  0
  9  4  1  0
 10 15  2  0
 12  1  1  0
 14  4  1  0
 14 11  1  0
 15 19  1  0
 15 12  1  0
 16 19  1  0
 17 20  1  0
 18  2  1  0
 18  3  2  0
 18 13  2  0
 20  6  2  0
 21 14  1  0
 21 11  1  0
 22 10  1  0
 22 16  1  0
 23 18  1  0
M  END
$$$$

     RDKit          3D

 15 16  0  0  0  0  0  0  0  0999 V2000
   63.8770   41.0790   32.9010 S   0  0  0  0  0  0  0  0  0  0  0  0
   65.7270   42.9250   33.4850 O   0  0  0  0  0  0  0  0  0  0  0  0
   62.4650   47.2120   34.3730 C   0  0  0  0  0  0  0  0  0  0  0  0
   62.4570   47.3860   35.7490 C   0  0  0  0  0  0  0  0  0  0  0  0
   64.5480   42.5300   33.0870 C   0  0  0  0  0  0  0  0  0  0  0  0
   62.0030   48.5220   35.1520 C   0  0  0  0  0  0  0  0  0  0  0  0
   65.0610   49.9960   35.7100 C   0  0  0  0  0  0  0  0  0  0  0  0
   62.5850   49.8810   35.2650 O   0  0  0  0  0  0  0  0  0  0  0  0
   65.5790   42.2940   32.1980 C   0  0  0  0  0  0  0  0  0  0  0  0
   62.2140   45.6260   33.9140 C   0  0  0  0  0  0  0  0  0  0  0  0
   61.1700   45.0250   34.0510 O   0  0  0  0  0  0  0  0  0  0  0  0
   63.6400   46.4100   36.4200 C   0  0  0  0  0  0  0  0  0  0  0  0
   63.5940   50.2840   35.5410 C   0  0  0  0  0  0  0  0  0  0  0  0
   63.4310   44.8790   33.4410 C   0  0  0  0  0  0  0  0  0  0  0  0
   63.5640   43.6440   33.3800 N   0  0  0  0  0  0  0  0  0  0  0  0
  3 10  1  0
  3  6  1  0
  3  4  1  0
  4 12  1  0
  5  1  1  0
  5 15  1  0
  5  2  1  0
  6  8  1  0
  6  4  1  0
  8 13  1  0
  9  5  1  0
  9  2  1  0
 10 11  2  0
 13  7  1  0
 14 10  1  0
 15 14  2  3
M  END
$$$$

     RDKit          3D

 15 14  0  0  0  0  0  0  0  0999 V2000
   69.8290   39.7980   33.5600 C   0  0  0  0  0  0  0  0  0  0  0  0
   60.1190   44.9020   35.3530 C   0  0  0  0  0  0  0  0  0  0  0  0
   60.7340   42.5970   34.3380 C   0  0  0  0  0  0  0  0  0  0  0  0
   65.9280   41.2830   32.7090 C   0  0  0  0  0  0  0  0  0  0  0  0
   61.5510   42.7150   33.0440 C   0  0  0  0  0  0  0  0  0  0  0  0
   64.7080   41.6770   32.7650 C   0  0  0  0  0  0  0  0  0  0  0  0
   67.0820   41.5390   33.5310 C   0  0  0  0  0  0  0  0  0  0  0  0
   71.6060   41.0730   33.3520 C   0  0  0  0  0  0  0  0  0  0  0  0
   69.4530   42.1680   33.2340 C   0  0  0  0  0  0  0  0  0  0  0  0
   70.2180   41.0750   32.8630 C   0  0  0  0  0  0  0  0  0  0  0  0
   62.9240   43.2980   33.3270 C   0  0  0  0  0  0  0  0  0  0  0  0
   58.8100   45.3740   36.0040 C   0  0  0  0  0  0  0  0  0  0  0  0
   64.0420   42.9470   32.6430 C   0  0  0  0  0  0  0  0  0  0  0  0
   68.0140   42.5170   33.1950 C   0  0  0  0  0  0  0  0  0  0  0  0
   59.7370   43.7360   34.4030 C   0  0  0  0  0  0  0  0  0  0  0  0
  2 12  1  0
  3 15  1  0
  4  6  1  0
  4  7  1  0
  5 11  1  0
  5  3  1  0
 10  9  1  0
 10  8  1  0
 10  1  1  0
 13  6  1  0
 13 11  1  0
 14  9  1  0
 14  7  1  0
 15  2  1  0
M  END
$$$$

     RDKit          3D

 11 11  0  0  0  0  0  0  0  0999 V2000
   63.5950   41.1320   32.1850 O   0  0  0  0  0  0  0  0  0  0  0  0
   66.9450   42.2350   32.8330 C   0  0  0  0  0  0  0  0  0  0  0  0
   64.5730   42.9400   31.1320 O   0  0  0  0  0  0  0  0  0  0  0  0
   66.1170   41.2770   31.9860 C   0  0  0  0  0  0  0  0  0  0  0  0
   67.6200   41.4710   32.0580 C   0  0  0  0  0  0  0  0  0  0  0  0
   69.0600   39.7190   31.2860 O   0  0  0  0  0  0  0  0  0  0  0  0
   66.9520   41.5920   35.0960 C   0  0  0  0  0  0  0  0  0  0  0  0
   66.1280   42.3920   34.1020 C   0  0  0  0  0  0  0  0  0  0  0  0
   66.1110   41.7170   36.2820 N   0  0  0  0  0  0  0  0  0  0  0  0
   64.6420   41.7460   31.6300 C   0  0  0  0  0  0  0  0  0  0  0  0
   68.1900   39.9980   32.4460 C   0  0  0  0  0  0  0  0  0  0  0  0
  2  8  1  0
  3 10  2  0
  4 10  1  0
  4  5  1  0
  4  2  1  0
  5 11  1  0
  5  2  1  0
  6 11  1  0
  7  9  1  0
  8  7  1  0
 10  1  1  0
M  END
$$$$

     RDKit          3D

  5  4  0  0  0  0  0  0  0  0999 V2000
   72.2050   48.3390   37.2950 C   0  0  0  0  0  0  0  0  0  0  0  0
   70.8800   47.4940   35.6770 O   0  0  0  0  0  0  0  0  0  0  0  0
   72.4300   49.3520   36.5050 O   0  0  0  0  0  0  0  0  0  0  0  0
   70.1650   46.6340   37.9670 C   0  0  0  0  0  0  0  0  0  0  0  0
   70.6960   47.7440   37.1970 C   0  0  0  0  0  0  0  0  0  0  0  0
  2  5  1  0
  3  1  1  0
  5  1  1  0
  5  4  1  0
M  END
$$$$

     RDKit          3D

 24 26  0  0  0  0  0  0  0  0999 V2000
   64.3700   41.1350   27.8250 C   0  0  0  0  0  0  0  0  0  0  0  0
   64.0650   41.7660   30.6160 C   0  0  0  0  0  0  0  0  0  0  0  0
   65.3260   48.4370   40.4980 C   0  0  0  0  0  0  0  0  0  0  0  0
   63.8090   43.3980   33.9790 C   0  0  0  0  0  0  0  0  0  0  0  0
   64.1350   45.3160   35.8500 C   0  0  0  0  0  0  0  0  0  0  0  0
   64.0850   44.8340   37.2550 C   0  0  0  0  0  0  0  0  0  0  0  0
   64.2560   37.8730   26.0090 O   0  0  0  0  0  0  0  0  0  0  0  0
   65.9730   47.3120   39.6040 C   0  0  0  0  0  0  0  0  0  0  0  0
   65.6510   40.1350   29.4230 C   0  0  0  0  0  0  0  0  0  0  0  0
   66.2060   47.5810   38.1950 C   0  0  0  0  0  0  0  0  0  0  0  0
   65.4870   46.1820   35.9230 C   0  0  0  0  0  0  0  0  0  0  0  0
   64.0380   42.5790   32.9050 C   0  0  0  0  0  0  0  0  0  0  0  0
   64.5440   39.7340   27.4400 N   0  0  0  0  0  0  0  0  0  0  0  0
   65.5190   49.4640   40.9720 O   0  0  0  0  0  0  0  0  0  0  0  0
   63.1490   39.6090   26.0070 O   0  0  0  0  0  0  0  0  0  0  0  0
   64.1850   39.0440   26.3140 C   0  0  0  0  0  0  0  0  0  0  0  0
   64.9860   45.7100   38.0430 C   0  0  0  0  0  0  0  0  0  0  0  0
   64.1480   47.8380   41.2110 O   0  0  0  0  0  0  0  0  0  0  0  0
   63.9370   43.0650   31.4560 C   0  0  0  0  0  0  0  0  0  0  0  0
   65.2280   39.0890   28.4020 C   0  0  0  0  0  0  0  0  0  0  0  0
   63.8650   44.2350   34.8530 C   0  0  0  0  0  0  0  0  0  0  0  0
   64.3980   41.1350   29.2610 C   0  0  0  0  0  0  0  0  0  0  0  0
   65.3120   46.9230   37.2480 C   0  0  0  0  0  0  0  0  0  0  0  0
   65.2290   46.0260   39.4210 O   0  0  0  0  0  0  0  0  0  0  0  0
  1 22  1  0
  2 19  1  0
  3 14  2  0
  3 18  1  0
  4 21  3  0
  5 21  1  0
  5 11  1  0
  5  6  1  0
  7 16  1  0
  8  3  1  0
 10  8  1  0
 12  4  1  0
 13  1  1  0
 13 20  1  0
 15 16  2  0
 16 13  1  0
 17  6  1  0
 17 24  1  0
 19 12  1  0
 20  9  1  0
 22  9  1  0
 22  2  1  0
 23 11  1  0
 23 17  1  0
 23 10  1  0
 24  8  1  0
M  END
$$$$
