
     RDKit          3D

 17 17  0  0  0  0  0  0  0  0999 V2000
   68.5870   40.4630   45.5490 C   0  0  0  0  0  0  0  0  0  0  0  0
   61.4150   42.1220   49.6500 C   0  0  0  0  0  0  0  0  0  0  0  0
   70.8900   39.4960   45.5930 O   0  0  0  0  0  0  0  0  0  0  0  0
   64.8820   40.9060   49.7890 C   0  0  0  0  0  0  0  0  0  0  0  0
   66.1660   41.6170   49.5300 C   0  0  0  0  0  0  0  0  0  0  0  0
   63.7090   41.6250   50.0450 O   0  0  0  0  0  0  0  0  0  0  0  0
   64.9650   40.0220   50.8040 O   0  0  0  0  0  0  0  0  0  0  0  0
   66.9630   41.6040   48.5820 O   0  0  0  0  0  0  0  0  0  0  0  0
   60.7760   42.3080   50.9230 C   0  0  0  0  0  0  0  0  0  0  0  0
   66.2700   42.4900   46.5600 O   0  0  0  0  0  0  0  0  0  0  0  0
   62.5220   41.0820   49.5300 C   0  0  0  0  0  0  0  0  0  0  0  0
   70.2530   41.0970   45.2920 P   0  0  0  0  0  0  0  0  0  0  0  0
   61.9610   43.1650   50.6860 C   0  0  0  0  0  0  0  0  0  0  0  0
   70.7950   41.8850   46.3300 O   0  0  0  0  0  0  0  0  0  0  0  0
   66.7490   41.4240   47.1780 C   0  0  0  0  0  0  0  0  0  0  0  0
   70.7650   41.4640   44.0930 O   0  0  0  0  0  0  0  0  0  0  0  0
   67.8960   41.0210   46.3600 C   0  0  0  0  0  0  0  0  0  0  0  0
  1 17  1  0
  2 13  1  0
  2  9  1  0
  4  6  1  0
  4  7  1  0
  5  4  1  0
  8  5  1  0
 11  2  1  0
 11  6  1  0
 12  1  1  0
 12  3  1  0
 12 14  1  0
 13  9  1  0
 15 10  1  0
 15  8  1  0
 16 12  2  0
 17 15  1  0
M  END
$$$$

     RDKit          3D

 16 15  0  0  0  0  0  0  0  0999 V2000
   70.4690   45.7870   43.2540 C   0  0  0  0  0  0  0  0  0  0  0  0
   69.2000   43.2480   43.5550 C   0  0  0  0  0  0  0  0  0  0  0  0
   69.6350   39.9780   45.3060 C   0  0  0  0  0  0  0  0  0  0  0  0
   67.2870   37.1420   46.8100 C   0  0  0  0  0  0  0  0  0  0  0  0
   70.6750   43.3240   43.3340 C   0  0  0  0  0  0  0  0  0  0  0  0
   67.4630   38.1710   47.7040 N   0  0  0  0  0  0  0  0  0  0  0  0
   69.7040   39.4930   43.9560 O   0  0  0  0  0  0  0  0  0  0  0  0
   72.3130   44.7200   44.1930 C   0  0  0  0  0  0  0  0  0  0  0  0
   69.2140   37.5150   45.7700 C   0  0  0  0  0  0  0  0  0  0  0  0
   69.7790   46.5610   43.5520 O   0  0  0  0  0  0  0  0  0  0  0  0
   68.6080   41.5000   45.4260 S   0  0  0  0  0  0  0  0  0  0  0  0
   66.5900   36.2150   46.7250 O   0  0  0  0  0  0  0  0  0  0  0  0
   71.2850   44.6610   43.0920 C   0  0  0  0  0  0  0  0  0  0  0  0
   68.8480   41.7880   43.6450 C   0  0  0  0  0  0  0  0  0  0  0  0
   68.4570   39.1040   47.5150 C   0  0  0  0  0  0  0  0  0  0  0  0
   69.5070   38.8470   46.3590 C   0  0  0  0  0  0  0  0  0  0  0  0
  1 10  1  0
  2 14  1  0
  3 11  1  0
  3 16  1  0
  4  6  1  0
  5  2  1  0
  7  3  2  0
 12  4  2  0
 13  1  1  0
 13  5  1  0
 13  8  1  0
 14 11  1  0
 15  6  2  3
 16  9  1  0
 16 15  1  0
M  END
$$$$

     RDKit          3D

 14 14  0  0  0  0  0  0  0  0999 V2000
   69.3780   42.2220   45.0910 C   0  0  0  0  0  0  0  0  0  0  0  0
   69.7490   39.5530   45.5540 C   0  0  0  0  0  0  0  0  0  0  0  0
   71.8260   41.2210   43.1690 O   0  0  0  0  0  0  0  0  0  0  0  0
   68.3770   43.0420   42.9740 N   0  0  0  0  0  0  0  0  0  0  0  0
   71.0210   40.3870   45.2360 C   0  0  0  0  0  0  0  0  0  0  0  0
   69.1040   43.2730   44.1460 C   0  0  0  0  0  0  0  0  0  0  0  0
   71.1980   38.9780   42.7200 O   0  0  0  0  0  0  0  0  0  0  0  0
   68.3980   41.6830   46.0620 C   0  0  0  0  0  0  0  0  0  0  0  0
   72.9690   39.2440   43.5220 O   0  0  0  0  0  0  0  0  0  0  0  0
   69.9550   44.1400   44.0120 O   0  0  0  0  0  0  0  0  0  0  0  0
   71.6620   39.8920   43.6300 P   0  0  0  0  0  0  0  0  0  0  0  0
   68.6080   40.1700   46.0780 C   0  0  0  0  0  0  0  0  0  0  0  0
   70.5210   41.7650   45.1630 C   0  0  0  0  0  0  0  0  0  0  0  0
   67.5390   39.6340   46.6370 O   0  0  0  0  0  0  0  0  0  0  0  0
  1  6  1  0
  1 13  1  0
  1  8  1  0
  2 12  2  0
  3 11  1  0
  4  6  1  0
  5 11  1  0
  5  2  1  0
  7 11  2  0
  8 12  1  0
  9 11  1  0
 10  6  2  0
 12 14  1  0
 13  5  1  0
M  END
$$$$

     RDKit          3D

 21 22  0  0  0  0  0  0  0  0999 V2000
   69.7840   40.4510   43.3620 C   0  0  0  0  0  0  0  0  0  0  0  0
   66.1290   42.6920   48.8970 C   0  0  0  0  0  0  0  0  0  0  0  0
   62.9780   40.9410   52.3020 C   0  0  0  0  0  0  0  0  0  0  0  0
   65.1190   43.5960   49.2560 N   0  0  0  0  0  0  0  0  0  0  0  0
   70.1150   42.1030   44.8170 C   0  0  0  0  0  0  0  0  0  0  0  0
   62.0200   40.3230   51.9790 N   0  0  0  0  0  0  0  0  0  0  0  0
   67.7130   43.4820   47.6090 N   0  0  0  0  0  0  0  0  0  0  0  0
   71.0090   41.3190   43.7020 C   0  0  0  0  0  0  0  0  0  0  0  0
   63.9800   43.5060   49.8540 C   0  0  0  0  0  0  0  0  0  0  0  0
   68.9240   41.5830   43.9600 C   0  0  0  0  0  0  0  0  0  0  0  0
   69.7610   39.3310   44.2360 O   0  0  0  0  0  0  0  0  0  0  0  0
   69.2680   43.0530   45.8120 C   0  0  0  0  0  0  0  0  0  0  0  0
   63.4770   42.0750   51.7640 C   0  0  0  0  0  0  0  0  0  0  0  0
   61.5090   40.7480   50.7600 C   0  0  0  0  0  0  0  0  0  0  0  0
   63.5570   42.1930   50.3130 C   0  0  0  0  0  0  0  0  0  0  0  0
   68.2330   42.2510   46.8350 C   0  0  0  0  0  0  0  0  0  0  0  0
   70.9450   43.3040   42.3060 O   0  0  0  0  0  0  0  0  0  0  0  0
   67.3560   43.5940   49.0530 C   0  0  0  0  0  0  0  0  0  0  0  0
   72.3310   41.7400   41.6380 N   0  0  0  0  0  0  0  0  0  0  0  0
   62.2650   41.5010   49.4700 S   0  0  0  0  0  0  0  0  0  0  0  0
   71.3620   42.1520   42.4370 C   0  0  0  0  0  0  0  0  0  0  0  0
  1  8  1  0
  1 10  1  0
  1 11  1  0
  2 18  1  0
  2  4  1  0
  4  9  2  3
  5 12  1  0
  6  3  1  0
  7 18  1  0
  8 21  1  0
  8  5  1  0
 10  5  1  0
 12 16  1  0
 13  3  1  0
 14  6  1  0
 15  9  1  0
 15 13  1  0
 16  7  1  0
 17 21  2  0
 19 21  1  0
 20 15  1  0
 20 14  1  0
M  END
$$$$

     RDKit          3D

 17 17  0  0  0  0  0  0  0  0999 V2000
   65.1750   40.8340   49.5970 C   0  0  0  0  0  0  0  0  0  0  0  0
   67.4710   40.3790   46.8430 S   0  0  0  0  0  0  0  0  0  0  0  0
   63.1590   38.5960   49.9250 C   0  0  0  0  0  0  0  0  0  0  0  0
   64.3320   39.2680   47.8000 N   0  0  0  0  0  0  0  0  0  0  0  0
   70.7070   43.1560   42.5820 C   0  0  0  0  0  0  0  0  0  0  0  0
   68.5690   42.6560   43.6610 C   0  0  0  0  0  0  0  0  0  0  0  0
   71.6620   43.7330   41.7680 C   0  0  0  0  0  0  0  0  0  0  0  0
   65.7440   41.2440   47.0590 C   0  0  0  0  0  0  0  0  0  0  0  0
   70.1580   41.1480   43.6240 C   0  0  0  0  0  0  0  0  0  0  0  0
   68.0160   42.1230   44.8090 C   0  0  0  0  0  0  0  0  0  0  0  0
   64.1450   40.3370   50.5360 C   0  0  0  0  0  0  0  0  0  0  0  0
   68.5090   40.9840   45.3950 C   0  0  0  0  0  0  0  0  0  0  0  0
   69.7410   42.0810   43.0990 C   0  0  0  0  0  0  0  0  0  0  0  0
   64.8370   40.6220   48.1190 C   0  0  0  0  0  0  0  0  0  0  0  0
   69.7090   40.4510   44.7950 C   0  0  0  0  0  0  0  0  0  0  0  0
   63.4100   38.7400   48.6780 N   0  0  0  0  0  0  0  0  0  0  0  0
   71.5540   40.6330   43.1370 N   0  0  0  0  0  0  0  0  0  0  0  0
  1 11  1  0
  2  8  2  3
  4 14  1  0
  4 16  1  0
  5 13  1  0
  6 10  1  0
  7  5  1  0
  9 15  2  0
 10 12  2  0
 12  2  1  0
 13  9  1  0
 13  6  2  0
 14  8  1  0
 14  1  1  0
 15 12  1  0
 16  3  2  0
 17  9  1  0
M  END
$$$$

     RDKit          3D

 10 10  0  0  0  0  0  0  0  0999 V2000
   66.3010   41.5270   45.9900 C   0  0  0  0  0  0  0  0  0  0  0  0
   65.0780   39.7650   50.0860 O   0  0  0  0  0  0  0  0  0  0  0  0
   68.1610   40.5790   47.2360 C   0  0  0  0  0  0  0  0  0  0  0  0
   68.8080   41.2390   45.2160 O   0  0  0  0  0  0  0  0  0  0  0  0
   64.9790   39.5790   48.8570 C   0  0  0  0  0  0  0  0  0  0  0  0
   65.8850   40.1980   47.8640 C   0  0  0  0  0  0  0  0  0  0  0  0
   67.7530   41.2950   46.1570 C   0  0  0  0  0  0  0  0  0  0  0  0
   65.3800   41.0290   47.0360 C   0  0  0  0  0  0  0  0  0  0  0  0
   67.3520   39.7740   47.8820 C   0  0  0  0  0  0  0  0  0  0  0  0
   63.9270   38.9630   48.6930 O   0  0  0  0  0  0  0  0  0  0  0  0
  1  7  1  0
  1  8  1  0
  3  9  1  0
  5  2  1  0
  6  9  1  0
  6  5  1  0
  7  4  1  0
  7  3  1  0
  8  6  2  0
 10  5  2  0
M  END
$$$$

     RDKit          3D

 12 11  0  0  0  0  0  0  0  0999 V2000
   66.0280   40.3150   47.3940 C   0  0  0  0  0  0  0  0  0  0  0  0
   68.4070   41.5170   45.3610 C   0  0  0  0  0  0  0  0  0  0  0  0
   62.8970   40.7510   48.5310 S   0  0  0  0  0  0  0  0  0  0  0  0
   65.9140   39.9250   48.5040 O   0  0  0  0  0  0  0  0  0  0  0  0
   67.3240   40.4000   46.9300 N   0  0  0  0  0  0  0  0  0  0  0  0
   63.4240   40.6760   47.0220 C   0  0  0  0  0  0  0  0  0  0  0  0
   61.9160   41.7330   48.7500 O   0  0  0  0  0  0  0  0  0  0  0  0
   69.1020   41.0700   44.3050 C   0  0  0  0  0  0  0  0  0  0  0  0
   64.8180   40.6030   46.4640 C   0  0  0  0  0  0  0  0  0  0  0  0
   63.5450   39.8920   49.5430 O   0  0  0  0  0  0  0  0  0  0  0  0
   68.4730   40.8100   46.6140 C   0  0  0  0  0  0  0  0  0  0  0  0
   66.9920   41.8310   44.9190 C   0  0  0  0  0  0  0  0  0  0  0  0
  1  4  2  0
  2 11  1  0
  3  7  2  0
  3 10  1  0
  5  1  1  0
  6  3  1  0
  8  2  1  0
  9  6  2  3
  9  1  1  0
 11  5  1  0
 12  2  1  0
M  END
$$$$

     RDKit          3D

 10  9  0  0  0  0  0  0  0  0999 V2000
   67.3930   41.6620   42.0830 O   0  0  0  0  0  0  0  0  0  0  0  0
   69.0000   40.7770   46.6820 O   0  0  0  0  0  0  0  0  0  0  0  0
   68.4830   41.1640   42.3190 C   0  0  0  0  0  0  0  0  0  0  0  0
   67.7620   41.1380   44.6790 N   0  0  0  0  0  0  0  0  0  0  0  0
   68.7830   40.8770   43.7600 C   0  0  0  0  0  0  0  0  0  0  0  0
   68.0900   40.8080   45.9940 C   0  0  0  0  0  0  0  0  0  0  0  0
   69.1580   40.8970   41.3940 O   0  0  0  0  0  0  0  0  0  0  0  0
   71.2320   40.6900   43.7180 C   0  0  0  0  0  0  0  0  0  0  0  0
   70.0940   41.7170   44.0450 C   0  0  0  0  0  0  0  0  0  0  0  0
   69.6270   43.1770   44.3960 C   0  0  0  0  0  0  0  0  0  0  0  0
  1  3  1  0
  4  6  1  0
  5  3  1  0
  5  9  1  0
  5  4  1  0
  6  2  2  0
  7  3  2  0
  8  9  1  0
  9 10  1  0
M  END
$$$$

     RDKit          3D

 11 10  0  0  0  0  0  0  0  0999 V2000
   64.1490   41.1330   48.7480 C   0  0  0  0  0  0  0  0  0  0  0  0
   68.3830   41.7030   45.7230 C   0  0  0  0  0  0  0  0  0  0  0  0
   66.7020   40.1310   46.6230 C   0  0  0  0  0  0  0  0  0  0  0  0
   65.9310   39.9860   47.8510 O   0  0  0  0  0  0  0  0  0  0  0  0
   62.5280   42.1510   50.8190 O   0  0  0  0  0  0  0  0  0  0  0  0
   65.3910   41.2260   48.2440 C   0  0  0  0  0  0  0  0  0  0  0  0
   63.6530   40.3590   49.5970 O   0  0  0  0  0  0  0  0  0  0  0  0
   67.9430   40.3970   46.3930 C   0  0  0  0  0  0  0  0  0  0  0  0
   61.7060   39.9130   51.5230 O   0  0  0  0  0  0  0  0  0  0  0  0
   63.8820   40.1690   51.7570 O   0  0  0  0  0  0  0  0  0  0  0  0
   62.8150   40.8710   50.9230 P   0  0  0  0  0  0  0  0  0  0  0  0
  1  7  1  0
  2  8  1  0
  3  4  1  0
  4  6  1  0
  5 11  2  0
  6  1  1  0
  7 11  1  0
  8  3  1  0
 11  9  1  0
 11 10  1  0
M  END
$$$$

     RDKit          3D

 10 10  0  0  0  0  0  0  0  0999 V2000
   63.7790   39.6940   45.9860 O   0  0  0  0  0  0  0  0  0  0  0  0
   63.5570   39.2670   50.2950 S   0  0  0  0  0  0  0  0  0  0  0  0
   65.0620   39.0750   48.0130 C   0  0  0  0  0  0  0  0  0  0  0  0
   63.5290   38.5560   52.8190 N   0  0  0  0  0  0  0  0  0  0  0  0
   64.7350   40.7420   46.0710 C   0  0  0  0  0  0  0  0  0  0  0  0
   63.0010   38.1840   51.4730 C   0  0  0  0  0  0  0  0  0  0  0  0
   63.8500   37.4450   46.6370 O   0  0  0  0  0  0  0  0  0  0  0  0
   64.2570   38.5460   46.8420 C   0  0  0  0  0  0  0  0  0  0  0  0
   64.6830   38.2450   49.3680 C   0  0  0  0  0  0  0  0  0  0  0  0
   65.1100   40.5670   47.3440 C   0  0  0  0  0  0  0  0  0  0  0  0
  1  5  1  0
  1  8  1  0
  2  6  1  0
  3  9  1  0
  5 10  1  0
  6  4  1  0
  7  8  2  0
  8  3  1  0
  9  2  1  0
 10  3  1  0
M  END
$$$$

     RDKit          3D

  6  6  0  0  0  0  0  0  0  0999 V2000
   67.9720   39.8390   43.3250 C   0  0  0  0  0  0  0  0  0  0  0  0
   66.6230   39.9700   45.0410 C   0  0  0  0  0  0  0  0  0  0  0  0
   68.8860   38.3630   43.3370 S   0  0  0  0  0  0  0  0  0  0  0  0
   67.3070   40.6800   43.8050 N   0  0  0  0  0  0  0  0  0  0  0  0
   67.2800   42.2900   43.9810 O   0  0  0  0  0  0  0  0  0  0  0  0
   68.6880   40.9450   43.7480 C   0  0  0  0  0  0  0  0  0  0  0  0
  1  3  1  0
  1  6  1  0
  1  4  1  0
  4  5  1  0
  4  2  1  0
  6  4  1  0
M  END
$$$$

     RDKit          3D

 15 15  0  0  0  0  0  0  0  0999 V2000
   62.3770   40.4340   49.9040 C   0  0  0  0  0  0  0  0  0  0  0  0
   68.5900   38.2040   44.6670 C   0  0  0  0  0  0  0  0  0  0  0  0
   62.0280   40.2570   51.0230 N   0  0  0  0  0  0  0  0  0  0  0  0
   64.2300   41.2560   48.7470 C   0  0  0  0  0  0  0  0  0  0  0  0
   65.4630   41.2010   48.0870 C   0  0  0  0  0  0  0  0  0  0  0  0
   70.6060   42.0380   43.4180 C   0  0  0  0  0  0  0  0  0  0  0  0
   66.6560   39.0660   47.5150 C   0  0  0  0  0  0  0  0  0  0  0  0
   68.5290   42.0210   43.9090 O   0  0  0  0  0  0  0  0  0  0  0  0
   66.4250   40.4090   47.2900 C   0  0  0  0  0  0  0  0  0  0  0  0
   67.2590   38.5280   46.5090 N   0  0  0  0  0  0  0  0  0  0  0  0
   63.4560   39.9420   48.9120 C   0  0  0  0  0  0  0  0  0  0  0  0
   67.0650   40.9980   45.8570 S   0  0  0  0  0  0  0  0  0  0  0  0
   69.7080   41.6120   44.5840 C   0  0  0  0  0  0  0  0  0  0  0  0
   68.0980   39.5270   45.5400 C   0  0  0  0  0  0  0  0  0  0  0  0
   69.6270   40.3210   45.2940 N   0  0  0  0  0  0  0  0  0  0  0  0
  1  3  2  0
  4 11  1  0
  5  4  2  3
  8 13  1  0
  9  7  1  0
  9  5  1  0
 10  7  1  0
 11  1  1  0
 12  9  1  0
 13  6  1  0
 13 15  1  0
 14  2  1  0
 14 12  1  0
 14 10  1  0
 15 14  1  0
M  END
$$$$

     RDKit          3D

  7  6  0  0  0  0  0  0  0  0999 V2000
   70.0370   40.4710   43.1980 C   0  0  0  0  0  0  0  0  0  0  0  0
   68.4380   40.4380   45.4610 C   0  0  0  0  0  0  0  0  0  0  0  0
   69.2320   42.5590   44.1990 C   0  0  0  0  0  0  0  0  0  0  0  0
   67.9850   42.7460   43.7300 O   0  0  0  0  0  0  0  0  0  0  0  0
   70.8860   40.7810   45.0050 C   0  0  0  0  0  0  0  0  0  0  0  0
   70.0570   43.4460   44.3090 O   0  0  0  0  0  0  0  0  0  0  0  0
   69.5310   41.0830   44.4290 C   0  0  0  0  0  0  0  0  0  0  0  0
  1  7  1  0
  3  6  1  0
  3  7  1  0
  4  3  2  0
  7  5  1  0
  7  2  1  0
M  END
$$$$

     RDKit          3D

 10 10  0  0  0  0  0  0  0  0999 V2000
   71.6070   41.2690   45.1190 C   0  0  0  0  0  0  0  0  0  0  0  0
   68.4520   38.1170   43.8050 N   0  0  0  0  0  0  0  0  0  0  0  0
   71.8760   40.3250   46.1550 O   0  0  0  0  0  0  0  0  0  0  0  0
   69.4070   39.9360   44.7060 C   0  0  0  0  0  0  0  0  0  0  0  0
   70.1300   41.3520   44.6560 C   0  0  0  0  0  0  0  0  0  0  0  0
   69.2860   42.1840   43.7730 O   0  0  0  0  0  0  0  0  0  0  0  0
   68.2240   38.0820   44.2680 C   0  0  0  0  0  0  0  0  0  0  0  0
   70.5310   41.9290   45.5390 O   0  0  0  0  0  0  0  0  0  0  0  0
   68.8670   39.2870   43.6750 N   0  0  0  0  0  0  0  0  0  0  0  0
   69.0110   39.3600   45.7990 C   0  0  0  0  0  0  0  0  0  0  0  0
  1  8  1  0
  1  3  1  0
  2  7  1  0
  4 10  2  0
  5  6  1  0
  5  4  1  0
  5  1  1  0
  5  8  1  0
  9  2  1  0
  9  4  1  0
M  END
$$$$

     RDKit          3D

 17 17  0  0  0  0  0  0  0  0999 V2000
   68.1370   43.3670   47.3940 C   0  0  0  0  0  0  0  0  0  0  0  0
   71.2610   43.3970   45.9940 N   0  0  0  0  0  0  0  0  0  0  0  0
   72.7670   43.0710   45.9840 C   0  0  0  0  0  0  0  0  0  0  0  0
   69.1810   42.6300   46.9830 C   0  0  0  0  0  0  0  0  0  0  0  0
   70.9190   43.9460   44.7980 C   0  0  0  0  0  0  0  0  0  0  0  0
   73.4900   42.7930   47.2590 C   0  0  0  0  0  0  0  0  0  0  0  0
   67.1210   42.8580   48.3980 C   0  0  0  0  0  0  0  0  0  0  0  0
   72.5600   42.9540   48.0930 N   0  0  0  0  0  0  0  0  0  0  0  0
   74.6820   42.6720   47.6050 O   0  0  0  0  0  0  0  0  0  0  0  0
   69.7950   44.1840   44.3650 O   0  0  0  0  0  0  0  0  0  0  0  0
   70.9370   44.1590   42.0210 O   0  0  0  0  0  0  0  0  0  0  0  0
   70.5560   42.4650   47.0260 C   0  0  0  0  0  0  0  0  0  0  0  0
   72.1850   44.5410   44.1390 C   0  0  0  0  0  0  0  0  0  0  0  0
   72.1570   45.0280   42.7830 C   0  0  0  0  0  0  0  0  0  0  0  0
   73.3780   43.9200   44.9360 C   0  0  0  0  0  0  0  0  0  0  0  0
   68.0550   44.8390   47.1900 C   0  0  0  0  0  0  0  0  0  0  0  0
   65.8790   42.4000   47.6370 C   0  0  0  0  0  0  0  0  0  0  0  0
  1 16  1  0
  1  7  1  0
  2 12  1  0
  3  2  1  0
  3  6  1  0
  4 12  1  0
  4  1  1  0
  5  2  1  0
  6  9  2  0
  6  8  1  0
 10  5  2  0
 11 14  1  0
 13 14  1  0
 13  5  1  0
 13 15  1  0
 15  3  1  0
 17  7  1  0
M  END
$$$$

     RDKit          3D

  9  8  0  0  0  0  0  0  0  0999 V2000
   68.2170   38.8780   43.0290 C   0  0  0  0  0  0  0  0  0  0  0  0
   69.0760   40.3830   46.2130 C   0  0  0  0  0  0  0  0  0  0  0  0
   68.4510   40.6900   44.8230 C   0  0  0  0  0  0  0  0  0  0  0  0
   68.3820   39.4520   44.3510 C   0  0  0  0  0  0  0  0  0  0  0  0
   69.9900   42.8600   46.0540 O   0  0  0  0  0  0  0  0  0  0  0  0
   68.9160   41.3040   43.6360 O   0  0  0  0  0  0  0  0  0  0  0  0
   70.8250   41.9190   45.9360 C   0  0  0  0  0  0  0  0  0  0  0  0
   71.9340   42.2020   45.3590 O   0  0  0  0  0  0  0  0  0  0  0  0
   70.6340   40.5940   46.0390 C   0  0  0  0  0  0  0  0  0  0  0  0
  1  4  1  0
  3  6  1  0
  3  2  1  0
  4  3  1  0
  7  9  1  0
  7  5  1  0
  8  7  2  0
  9  2  1  0
M  END
$$$$

     RDKit          3D

  8  7  0  0  0  0  0  0  0  0999 V2000
   66.4720   39.6960   46.9810 C   0  0  0  0  0  0  0  0  0  0  0  0
   67.7180   41.0590   45.5030 C   0  0  0  0  0  0  0  0  0  0  0  0
   69.9320   39.9700   45.2830 C   0  0  0  0  0  0  0  0  0  0  0  0
   66.3540   39.3010   48.1470 O   0  0  0  0  0  0  0  0  0  0  0  0
   68.8970   39.7710   45.8580 C   0  0  0  0  0  0  0  0  0  0  0  0
   66.0290   38.9820   46.0610 O   0  0  0  0  0  0  0  0  0  0  0  0
   67.1430   41.0450   46.6880 C   0  0  0  0  0  0  0  0  0  0  0  0
   70.5150   39.5110   44.0830 O   0  0  0  0  0  0  0  0  0  0  0  0
  1  4  1  0
  2  5  1  0
  2  7  1  0
  3  5  1  0
  6  1  2  0
  7  1  1  0
  8  3  1  0
M  END
$$$$

     RDKit          3D

 22 22  0  0  0  0  0  0  0  0999 V2000
   69.7860   40.9540   43.9370 N   0  0  0  0  0  0  0  0  0  0  0  0
   64.4170   38.4380   52.8330 O   0  0  0  0  0  0  0  0  0  0  0  0
   62.5570   40.0810   51.8170 N   0  0  0  0  0  0  0  0  0  0  0  0
   62.8080   40.2080   50.8820 C   0  0  0  0  0  0  0  0  0  0  0  0
   67.3410   40.0960   47.6300 N   0  0  0  0  0  0  0  0  0  0  0  0
   67.5900   40.7690   44.4350 O   0  0  0  0  0  0  0  0  0  0  0  0
   64.4130   38.1250   50.4480 O   0  0  0  0  0  0  0  0  0  0  0  0
   62.3820   39.3050   54.0440 O   0  0  0  0  0  0  0  0  0  0  0  0
   71.2070   43.9520   44.6210 C   0  0  0  0  0  0  0  0  0  0  0  0
   64.4800   39.2530   49.7760 C   0  0  0  0  0  0  0  0  0  0  0  0
   71.8170   43.8720   45.4680 O   0  0  0  0  0  0  0  0  0  0  0  0
   65.5600   39.1510   48.8290 N   0  0  0  0  0  0  0  0  0  0  0  0
   68.3680   40.1710   45.4980 C   0  0  0  0  0  0  0  0  0  0  0  0
   63.6830   40.2900   49.9690 C   0  0  0  0  0  0  0  0  0  0  0  0
   70.5410   41.6960   44.4540 C   0  0  0  0  0  0  0  0  0  0  0  0
   66.3200   41.2550   48.9220 C   0  0  0  0  0  0  0  0  0  0  0  0
   71.1190   42.7980   43.7220 C   0  0  0  0  0  0  0  0  0  0  0  0
   66.2630   40.0140   48.6360 C   0  0  0  0  0  0  0  0  0  0  0  0
   63.4700   39.5240   53.0440 S   0  0  0  0  0  0  0  0  0  0  0  0
   68.7140   40.7360   44.6230 C   0  0  0  0  0  0  0  0  0  0  0  0
   71.1580   41.4510   45.6390 O   0  0  0  0  0  0  0  0  0  0  0  0
   68.4570   40.6510   47.0960 C   0  0  0  0  0  0  0  0  0  0  0  0
  1 15  1  0
  2 19  1  0
  3 19  1  0
  4  3  2  3
  5 18  1  0
  6 20  1  0
  6 13  1  0
  9 11  2  0
 10 14  1  0
 10  7  2  0
 12 10  1  0
 13 22  1  0
 14  4  1  0
 15 21  2  0
 17 15  1  0
 17  9  1  0
 18 12  2  3
 18 16  1  0
 19  8  1  0
 20  1  1  0
 20 13  1  0
 22  5  1  0
M  END
$$$$

     RDKit          3D

 20 19  0  0  0  0  0  0  0  0999 V2000
   66.0070   40.7900   45.2450 C   0  0  0  0  0  0  0  0  0  0  0  0
   69.6560   40.3750   45.9200 C   0  0  0  0  0  0  0  0  0  0  0  0
   70.1530   42.0550   44.2770 C   0  0  0  0  0  0  0  0  0  0  0  0
   63.8670   40.0420   46.0290 O   0  0  0  0  0  0  0  0  0  0  0  0
   62.8650   39.3690   49.8040 C   0  0  0  0  0  0  0  0  0  0  0  0
   61.6440   39.2980   49.1140 C   0  0  0  0  0  0  0  0  0  0  0  0
   70.3130   45.8030   43.0680 C   0  0  0  0  0  0  0  0  0  0  0  0
   70.5870   41.3180   45.4050 C   0  0  0  0  0  0  0  0  0  0  0  0
   69.4490   44.9710   43.4060 N   0  0  0  0  0  0  0  0  0  0  0  0
   70.4630   46.7030   42.3980 O   0  0  0  0  0  0  0  0  0  0  0  0
   70.6570   43.3570   43.9470 C   0  0  0  0  0  0  0  0  0  0  0  0
   64.0620   39.6210   48.8870 C   0  0  0  0  0  0  0  0  0  0  0  0
   63.4980   39.8750   47.4910 C   0  0  0  0  0  0  0  0  0  0  0  0
   71.6310   44.0080   44.6280 O   0  0  0  0  0  0  0  0  0  0  0  0
   69.2660   43.9580   44.0700 C   0  0  0  0  0  0  0  0  0  0  0  0
   65.7230   39.0530   46.8010 O   0  0  0  0  0  0  0  0  0  0  0  0
   67.3310   40.0840   44.9450 C   0  0  0  0  0  0  0  0  0  0  0  0
   68.3470   40.6870   46.0160 C   0  0  0  0  0  0  0  0  0  0  0  0
   70.5970   46.4640   44.1800 O   0  0  0  0  0  0  0  0  0  0  0  0
   65.1210   39.7660   45.9440 C   0  0  0  0  0  0  0  0  0  0  0  0
  1 20  1  0
  2 18  1  0
  3  8  1  0
  4 13  1  0
  6  5  1  0
  7  9  1  0
  7 19  1  0
  8  2  1  0
  9 15  1  0
 10  7  1  0
 11 15  1  0
 11  3  1  0
 11 14  1  0
 12  5  1  0
 13 12  1  0
 17  1  1  0
 17 18  1  0
 20  4  1  0
 20 16  2  0
M  END
$$$$

     RDKit          3D

 14 14  0  0  0  0  0  0  0  0999 V2000
   72.0590   42.4190   45.2720 O   0  0  0  0  0  0  0  0  0  0  0  0
   68.9750   38.7500   44.2510 C   0  0  0  0  0  0  0  0  0  0  0  0
   69.2210   43.9520   42.3320 O   0  0  0  0  0  0  0  0  0  0  0  0
   71.4240   39.0790   44.9970 O   0  0  0  0  0  0  0  0  0  0  0  0
   70.1000   40.9000   44.2460 C   0  0  0  0  0  0  0  0  0  0  0  0
   67.9730   41.0810   43.0300 O   0  0  0  0  0  0  0  0  0  0  0  0
   70.6720   39.8880   46.3640 O   0  0  0  0  0  0  0  0  0  0  0  0
   70.3120   44.3840   44.3290 O   0  0  0  0  0  0  0  0  0  0  0  0
   70.5320   39.4210   44.1450 C   0  0  0  0  0  0  0  0  0  0  0  0
   71.0470   42.0020   42.2760 O   0  0  0  0  0  0  0  0  0  0  0  0
   69.9160   43.5690   43.3630 C   0  0  0  0  0  0  0  0  0  0  0  0
   70.4960   42.1730   43.5700 C   0  0  0  0  0  0  0  0  0  0  0  0
   71.3930   41.6720   44.4940 C   0  0  0  0  0  0  0  0  0  0  0  0
   68.5240   40.9950   44.3100 C   0  0  0  0  0  0  0  0  0  0  0  0
  3 11  2  0
  4  7  1  0
  5 14  1  0
  5 13  1  0
  6 14  1  0
  9  5  1  0
  9  2  1  0
  9  4  1  0
 11 12  1  0
 11  8  1  0
 12 10  1  0
 12  5  1  0
 12 13  1  0
 13  1  1  0
M  END
$$$$
