
     RDKit          3D

 29 29  0  0  0  0  0  0  0  0999 V2000
   69.7480   32.2930   42.6670 C   0  0  0  0  0  0  0  0  0  0  0  0
   67.0090   43.7100   38.7310 C   0  0  0  0  0  0  0  0  0  0  0  0
   64.4930   39.0260   40.2890 C   0  0  0  0  0  0  0  0  0  0  0  0
   66.9950   36.2720   40.0000 C   0  0  0  0  0  0  0  0  0  0  0  0
   66.0180   46.0200   39.6840 C   0  0  0  0  0  0  0  0  0  0  0  0
   65.6110   39.3490   39.6810 C   0  0  0  0  0  0  0  0  0  0  0  0
   66.4960   31.8780   40.4130 C   0  0  0  0  0  0  0  0  0  0  0  0
   66.0920   44.7530   41.7180 C   0  0  0  0  0  0  0  0  0  0  0  0
   67.2850   32.6150   44.0450 C   0  0  0  0  0  0  0  0  0  0  0  0
   64.5090   37.6850   40.5480 C   0  0  0  0  0  0  0  0  0  0  0  0
   67.2110   33.0130   42.6680 N   0  0  0  0  0  0  0  0  0  0  0  0
   62.6280   36.2930   41.4370 C   0  0  0  0  0  0  0  0  0  0  0  0
   65.1500   42.6850   39.7150 C   0  0  0  0  0  0  0  0  0  0  0  0
   64.9590   35.1010   40.7150 O   0  0  0  0  0  0  0  0  0  0  0  0
   65.4990   47.0620   40.5230 O   0  0  0  0  0  0  0  0  0  0  0  0
   63.1020   34.0080   41.3640 C   0  0  0  0  0  0  0  0  0  0  0  0
   63.8320   35.3620   41.3700 C   0  0  0  0  0  0  0  0  0  0  0  0
   65.4140   34.2410   43.2200 O   0  0  0  0  0  0  0  0  0  0  0  0
   66.3570   43.5190   39.8200 C   0  0  0  0  0  0  0  0  0  0  0  0
   65.9270   44.9110   40.1750 C   0  0  0  0  0  0  0  0  0  0  0  0
   66.0690   33.0960   40.0310 C   0  0  0  0  0  0  0  0  0  0  0  0
   67.3500   35.0490   40.7070 C   0  0  0  0  0  0  0  0  0  0  0  0
   68.4530   32.7870   42.2190 C   0  0  0  0  0  0  0  0  0  0  0  0
   65.9590   40.5280   39.4920 O   0  0  0  0  0  0  0  0  0  0  0  0
   65.9420   37.3340   40.1600 C   0  0  0  0  0  0  0  0  0  0  0  0
   64.8790   41.3820   39.4170 C   0  0  0  0  0  0  0  0  0  0  0  0
   66.5070   38.4050   39.6920 N   0  0  0  0  0  0  0  0  0  0  0  0
   66.0620   34.2450   40.9030 C   0  0  0  0  0  0  0  0  0  0  0  0
   66.1840   33.7970   42.3190 C   0  0  0  0  0  0  0  0  0  0  0  0
  3 10  1  0
  4 25  1  0
  4 22  1  0
  5 20  1  0
  5 15  1  0
  6 27  2  0
  6  3  1  0
 11  9  1  0
 13 19  1  0
 14 28  1  0
 14 17  1  0
 16 17  1  0
 17 12  1  0
 19  2  1  0
 19 20  1  0
 20  8  1  0
 21  7  2  0
 22 28  1  0
 23  1  1  0
 23 11  1  0
 24  6  1  0
 25 10  2  0
 26 24  1  0
 26 13  1  0
 27 25  1  0
 28 21  1  0
 28 29  1  0
 29 11  1  0
 29 18  2  0
M  END
$$$$

     RDKit          3D

 13 14  0  0  0  0  0  0  0  0999 V2000
   68.2850   37.7770   41.5490 C   0  0  0  0  0  0  0  0  0  0  0  0
   67.2810   36.1830   42.4870 I   0  0  0  0  0  0  0  0  0  0  0  0
   68.5250   38.1860   40.0500 C   0  0  0  0  0  0  0  0  0  0  0  0
   68.0570   38.8880   42.2700 N   0  0  0  0  0  0  0  0  0  0  0  0
   69.1100   38.0700   38.5920 C   0  0  0  0  0  0  0  0  0  0  0  0
   68.0210   40.0690   41.4920 C   0  0  0  0  0  0  0  0  0  0  0  0
   69.0010   39.3290   37.8690 C   0  0  0  0  0  0  0  0  0  0  0  0
   68.8300   39.5440   40.3930 C   0  0  0  0  0  0  0  0  0  0  0  0
   69.4950   37.0090   38.1570 O   0  0  0  0  0  0  0  0  0  0  0  0
   68.1370   41.4510   43.4510 O   0  0  0  0  0  0  0  0  0  0  0  0
   68.0450   41.3730   42.1740 C   0  0  0  0  0  0  0  0  0  0  0  0
   68.3460   40.5410   38.8440 S   0  0  0  0  0  0  0  0  0  0  0  0
   68.4290   42.4150   41.5140 O   0  0  0  0  0  0  0  0  0  0  0  0
  1  4  1  0
  1  2  1  0
  3  5  1  0
  3  8  1  0
  3  1  1  0
  6 11  1  0
  6  4  1  0
  7  5  1  0
  7 12  1  0
  8 12  1  0
  8  6  1  0
  9  5  2  0
 11 10  1  0
 13 11  2  0
M  END
$$$$

     RDKit          3D

 14 13  0  0  0  0  0  0  0  0999 V2000
   67.3270   39.8790   41.6510 O   0  0  0  0  0  0  0  0  0  0  0  0
   61.5570   42.9070   42.5580 O   0  0  0  0  0  0  0  0  0  0  0  0
   62.5790   44.8950   42.3490 C   0  0  0  0  0  0  0  0  0  0  0  0
   64.9310   38.8600   42.6380 C   0  0  0  0  0  0  0  0  0  0  0  0
   65.6940   38.0150   43.5660 C   0  0  0  0  0  0  0  0  0  0  0  0
   65.3400   41.1490   41.6410 C   0  0  0  0  0  0  0  0  0  0  0  0
   63.9980   43.0130   42.7430 C   0  0  0  0  0  0  0  0  0  0  0  0
   64.7300   38.1530   41.3110 C   0  0  0  0  0  0  0  0  0  0  0  0
   65.9910   39.9380   42.2270 C   0  0  0  0  0  0  0  0  0  0  0  0
   65.7040   41.3430   40.3150 O   0  0  0  0  0  0  0  0  0  0  0  0
   62.9330   43.5260   41.7960 C   0  0  0  0  0  0  0  0  0  0  0  0
   63.8810   39.6070   43.4520 C   0  0  0  0  0  0  0  0  0  0  0  0
   65.1880   42.2440   42.5760 C   0  0  0  0  0  0  0  0  0  0  0  0
   66.0200   38.7220   44.7550 O   0  0  0  0  0  0  0  0  0  0  0  0
  4 12  1  0
  4  5  1  0
  5 14  1  0
  6 10  1  0
  6  9  1  0
  6 13  1  0
  8  4  1  0
  9  1  1  0
  9  4  1  0
 11  3  1  0
 11  2  1  0
 11  7  1  0
 13  7  1  0
M  END
$$$$

     RDKit          3D

 16 17  0  0  0  0  0  0  0  0999 V2000
   66.2140   35.7140   40.7240 O   0  0  0  0  0  0  0  0  0  0  0  0
   67.1850   35.9180   41.3980 C   0  0  0  0  0  0  0  0  0  0  0  0
   68.8390   38.7170   38.5900 C   0  0  0  0  0  0  0  0  0  0  0  0
   69.3790   39.2080   41.8760 O   0  0  0  0  0  0  0  0  0  0  0  0
   66.1570   34.8630   43.1770 O   0  0  0  0  0  0  0  0  0  0  0  0
   67.9920   37.2770   43.0860 N   0  0  0  0  0  0  0  0  0  0  0  0
   68.7880   39.3790   37.2720 C   0  0  0  0  0  0  0  0  0  0  0  0
   68.2340   36.7400   41.8430 C   0  0  0  0  0  0  0  0  0  0  0  0
   68.4390   37.7310   40.7350 N   0  0  0  0  0  0  0  0  0  0  0  0
   68.5750   40.8780   37.7250 C   0  0  0  0  0  0  0  0  0  0  0  0
   69.3800   40.9690   39.0390 C   0  0  0  0  0  0  0  0  0  0  0  0
   68.8770   42.0040   40.0590 C   0  0  0  0  0  0  0  0  0  0  0  0
   69.0950   39.7040   39.8570 C   0  0  0  0  0  0  0  0  0  0  0  0
   66.2000   35.3350   41.9550 C   0  0  0  0  0  0  0  0  0  0  0  0
   67.3270   41.4820   37.8130 C   0  0  0  0  0  0  0  0  0  0  0  0
   69.1620   38.7410   40.9360 C   0  0  0  0  0  0  0  0  0  0  0  0
  1  2  1  0
  1 14  1  0
  2  8  1  0
  2 14  1  0
  3 13  2  0
  7 10  1  0
  7  3  1  0
  8  6  1  0
  9 16  1  0
  9  8  1  0
 10 15  1  0
 10 11  1  0
 11 13  1  0
 11 12  1  0
 13 16  1  0
 14  5  2  0
 16  4  2  0
M  END
$$$$

     RDKit          3D

 13 12  0  0  0  0  0  0  0  0999 V2000
   67.1060   38.6580   42.1070 O   0  0  0  0  0  0  0  0  0  0  0  0
   62.5550   40.5770   42.0230 O   0  0  0  0  0  0  0  0  0  0  0  0
   66.7530   40.4310   38.8130 C   0  0  0  0  0  0  0  0  0  0  0  0
   62.9770   39.1860   42.1710 C   0  0  0  0  0  0  0  0  0  0  0  0
   64.4540   39.1790   42.3000 C   0  0  0  0  0  0  0  0  0  0  0  0
   64.7070   40.7250   40.5470 O   0  0  0  0  0  0  0  0  0  0  0  0
   66.3550   39.3760   40.8620 C   0  0  0  0  0  0  0  0  0  0  0  0
   67.4500   39.9890   40.0490 C   0  0  0  0  0  0  0  0  0  0  0  0
   68.3190   41.1740   40.3070 C   0  0  0  0  0  0  0  0  0  0  0  0
   65.9170   39.3230   38.3490 O   0  0  0  0  0  0  0  0  0  0  0  0
   61.9270   38.8180   43.4570 S   0  0  0  0  0  0  0  0  0  0  0  0
   65.3630   40.1090   41.5480 C   0  0  0  0  0  0  0  0  0  0  0  0
   64.8400   38.0340   42.7770 O   0  0  0  0  0  0  0  0  0  0  0  0
  3  8  1  0
  4  2  1  0
  4  5  1  0
  4 11  1  0
  5 13  1  0
  7 12  1  0
  7  1  1  0
  8  9  1  0
  8  7  1  0
 10  3  1  0
 12  6  1  0
 12  5  1  0
M  END
$$$$

     RDKit          3D

 19 19  0  0  0  0  0  0  0  0999 V2000
   65.9630   36.4150   41.8240 C   0  0  0  0  0  0  0  0  0  0  0  0
   67.1280   35.7220   42.6270 C   0  0  0  0  0  0  0  0  0  0  0  0
   62.6190   44.4340   40.6620 O   0  0  0  0  0  0  0  0  0  0  0  0
   65.9750   43.5400   39.5710 C   0  0  0  0  0  0  0  0  0  0  0  0
   65.9960   41.2560   40.5960 C   0  0  0  0  0  0  0  0  0  0  0  0
   67.9530   34.4140   42.8800 C   0  0  0  0  0  0  0  0  0  0  0  0
   64.8270   32.0270   44.9340 C   0  0  0  0  0  0  0  0  0  0  0  0
   67.0360   44.6760   39.6780 N   0  0  0  0  0  0  0  0  0  0  0  0
   66.3980   38.7560   40.9290 C   0  0  0  0  0  0  0  0  0  0  0  0
   66.2490   37.8870   41.7720 C   0  0  0  0  0  0  0  0  0  0  0  0
   65.8110   39.9160   40.4890 C   0  0  0  0  0  0  0  0  0  0  0  0
   66.0680   32.7010   44.5970 C   0  0  0  0  0  0  0  0  0  0  0  0
   66.7050   42.2010   39.7370 C   0  0  0  0  0  0  0  0  0  0  0  0
   65.6190   34.0570   43.7820 C   0  0  0  0  0  0  0  0  0  0  0  0
   63.6730   44.6100   39.9610 C   0  0  0  0  0  0  0  0  0  0  0  0
   63.7220   45.6670   39.4030 O   0  0  0  0  0  0  0  0  0  0  0  0
   64.8320   43.7610   40.4660 C   0  0  0  0  0  0  0  0  0  0  0  0
   66.6070   34.4510   43.1470 C   0  0  0  0  0  0  0  0  0  0  0  0
   65.9650   31.7820   43.9710 C   0  0  0  0  0  0  0  0  0  0  0  0
  2  1  1  0
  2  6  1  0
  2 18  1  0
  4  8  1  0
  4 13  1  0
  4 17  1  0
  6 18  1  0
  9 10  1  0
 10  1  1  0
 11  5  1  0
 11  9  1  0
 12  7  1  0
 13  5  1  0
 14 12  1  0
 15 17  1  0
 15  3  1  0
 16 15  2  0
 18 14  1  0
 19 12  1  0
M  END
$$$$

     RDKit          3D

  6  6  0  0  0  0  0  0  0  0999 V2000
   67.5590   39.3060   41.1550 C   0  0  0  0  0  0  0  0  0  0  0  0
   67.9060   37.8350   41.3790 C   0  0  0  0  0  0  0  0  0  0  0  0
   69.3340   37.1360   42.2990 O   0  0  0  0  0  0  0  0  0  0  0  0
   67.9100   36.7920   42.1740 C   0  0  0  0  0  0  0  0  0  0  0  0
   67.9390   39.8400   42.4390 O   0  0  0  0  0  0  0  0  0  0  0  0
   69.1930   37.5240   40.9330 C   0  0  0  0  0  0  0  0  0  0  0  0
  1  2  1  0
  1  5  1  0
  2  4  1  0
  4  3  1  0
  6  2  1  0
  6  3  1  0
M  END
$$$$

     RDKit          3D

 10  9  0  0  0  0  0  0  0  0999 V2000
   68.9090   38.5400   39.2200 C   0  0  0  0  0  0  0  0  0  0  0  0
   68.9370   37.4300   40.0260 C   0  0  0  0  0  0  0  0  0  0  0  0
   68.1690   40.3280   40.9160 C   0  0  0  0  0  0  0  0  0  0  0  0
   69.1810   37.5880   41.4120 O   0  0  0  0  0  0  0  0  0  0  0  0
   68.6590   39.8260   40.0000 C   0  0  0  0  0  0  0  0  0  0  0  0
   66.8440   40.6410   40.9990 C   0  0  0  0  0  0  0  0  0  0  0  0
   65.3190   43.9850   41.5850 C   0  0  0  0  0  0  0  0  0  0  0  0
   66.2450   41.9000   41.0950 C   0  0  0  0  0  0  0  0  0  0  0  0
   65.8510   42.4580   42.4440 C   0  0  0  0  0  0  0  0  0  0  0  0
   64.4550   44.7570   41.4280 N   0  0  0  0  0  0  0  0  0  0  0  0
  1  5  1  0
  1  2  1  0
  2  4  1  0
  3  6  1  0
  5  3  1  0
  6  8  1  0
  7  9  1  0
  8  9  1  0
 10  7  2  0
M  END
$$$$

     RDKit          3D

 21 23  0  0  0  0  0  0  0  0999 V2000
   69.4840   38.4810   38.9840 C   0  0  0  0  0  0  0  0  0  0  0  0
   64.1790   38.4070   43.2540 C   0  0  0  0  0  0  0  0  0  0  0  0
   64.1690   38.7730   41.7860 C   0  0  0  0  0  0  0  0  0  0  0  0
   69.4740   39.9510   38.7150 C   0  0  0  0  0  0  0  0  0  0  0  0
   62.3880   36.4990   45.1230 N   0  0  0  0  0  0  0  0  0  0  0  0
   66.2680   36.8650   41.3180 S   0  0  0  0  0  0  0  0  0  0  0  0
   64.0360   39.4450   44.3970 C   0  0  0  0  0  0  0  0  0  0  0  0
   70.8560   40.4450   38.3390 C   0  0  0  0  0  0  0  0  0  0  0  0
   63.2280   36.2480   44.0080 C   0  0  0  0  0  0  0  0  0  0  0  0
   65.2860   39.1750   41.0570 N   0  0  0  0  0  0  0  0  0  0  0  0
   70.1000   37.6130   38.8110 O   0  0  0  0  0  0  0  0  0  0  0  0
   63.0960   37.4410   45.9610 C   0  0  0  0  0  0  0  0  0  0  0  0
   71.9220   40.0730   38.4250 O   0  0  0  0  0  0  0  0  0  0  0  0
   70.4330   41.1000   37.0570 O   0  0  0  0  0  0  0  0  0  0  0  0
   68.2460   39.0370   38.8540 C   0  0  0  0  0  0  0  0  0  0  0  0
   63.0860   38.8900   45.5030 C   0  0  0  0  0  0  0  0  0  0  0  0
   67.3860   39.4500   40.0230 C   0  0  0  0  0  0  0  0  0  0  0  0
   66.9650   37.1740   40.0530 C   0  0  0  0  0  0  0  0  0  0  0  0
   66.3520   38.4320   40.4930 C   0  0  0  0  0  0  0  0  0  0  0  0
   63.1320   37.3350   43.0840 C   0  0  0  0  0  0  0  0  0  0  0  0
   63.1840   39.5310   41.5940 O   0  0  0  0  0  0  0  0  0  0  0  0
  2  3  1  0
  2  7  1  0
  3 21  1  0
  4  8  1  0
  4 15  1  0
  4  1  1  0
  5 12  1  0
  7 16  1  0
  8 13  1  0
  9  5  1  0
 10  3  1  0
 11  1  2  0
 14  8  2  0
 15  1  1  0
 15 17  1  0
 16 12  1  0
 18 19  1  0
 18  6  1  0
 19 17  1  0
 19 10  1  0
 19  6  1  0
 20  2  1  0
 20  9  1  0
M  END
$$$$

     RDKit          3D

 12 11  0  0  0  0  0  0  0  0999 V2000
   67.6700   35.9940   36.9740 C   0  0  0  0  0  0  0  0  0  0  0  0
   63.5960   39.7970   40.7650 O   0  0  0  0  0  0  0  0  0  0  0  0
   66.6570   36.2100   37.9310 C   0  0  0  0  0  0  0  0  0  0  0  0
   67.8010   38.1990   38.4640 O   0  0  0  0  0  0  0  0  0  0  0  0
   65.9800   39.7690   40.4600 O   0  0  0  0  0  0  0  0  0  0  0  0
   65.7970   38.2740   38.6670 N   0  0  0  0  0  0  0  0  0  0  0  0
   62.3280   40.7680   42.3770 C   0  0  0  0  0  0  0  0  0  0  0  0
   65.2170   35.0710   38.0350 Cl  0  0  0  0  0  0  0  0  0  0  0  0
   65.1260   38.9230   39.6720 S   0  0  0  0  0  0  0  0  0  0  0  0
   66.7060   37.4550   38.6630 C   0  0  0  0  0  0  0  0  0  0  0  0
   64.2340   39.4720   38.8200 O   0  0  0  0  0  0  0  0  0  0  0  0
   63.0950   40.5650   40.9850 C   0  0  0  0  0  0  0  0  0  0  0  0
  2 12  1  0
  3  1  1  0
  3  8  1  0
  3 10  1  0
  6  9  1  0
  9  5  1  0
  9  2  1  0
 10  4  1  0
 10  6  1  0
 11  9  1  0
 12  7  1  0
M  END
$$$$

     RDKit          3D

 14 14  0  0  0  0  0  0  0  0999 V2000
   65.3720   41.5540   41.0490 C   0  0  0  0  0  0  0  0  0  0  0  0
   69.4750   38.3990   42.1150 C   0  0  0  0  0  0  0  0  0  0  0  0
   66.5540   38.3920   42.8610 N   0  0  0  0  0  0  0  0  0  0  0  0
   71.0950   38.8210   40.7560 O   0  0  0  0  0  0  0  0  0  0  0  0
   66.4920   39.5680   42.2790 C   0  0  0  0  0  0  0  0  0  0  0  0
   64.5320   43.4230   42.5310 C   0  0  0  0  0  0  0  0  0  0  0  0
   68.3220   36.4000   42.9720 O   0  0  0  0  0  0  0  0  0  0  0  0
   64.5000   42.8550   41.1970 C   0  0  0  0  0  0  0  0  0  0  0  0
   65.2810   40.0260   41.5080 C   0  0  0  0  0  0  0  0  0  0  0  0
   68.4680   38.9860   42.0610 C   0  0  0  0  0  0  0  0  0  0  0  0
   67.7400   40.0710   42.2600 N   0  0  0  0  0  0  0  0  0  0  0  0
   67.7830   37.7550   42.5320 C   0  0  0  0  0  0  0  0  0  0  0  0
   70.3290   37.8650   41.4340 O   0  0  0  0  0  0  0  0  0  0  0  0
   65.5880   41.6500   39.8070 O   0  0  0  0  0  0  0  0  0  0  0  0
  1  8  1  0
  1  9  1  0
  4 13  1  0
  5  3  2  0
  8  6  1  0
  9  5  1  0
 10  2  1  0
 10 11  1  0
 10 12  1  0
 11  5  1  0
 12  3  1  0
 12  7  2  0
 13  2  1  0
 14  1  2  0
M  END
$$$$

     RDKit          3D

 13 13  0  0  0  0  0  0  0  0999 V2000
   65.9180   41.5110   38.7280 P   0  0  0  0  0  0  0  0  0  0  0  0
   65.4880   42.9140   38.7890 O   0  0  0  0  0  0  0  0  0  0  0  0
   64.2630   38.1610   40.8780 C   0  0  0  0  0  0  0  0  0  0  0  0
   64.1630   40.2220   39.5800 N   0  0  0  0  0  0  0  0  0  0  0  0
   67.1040   41.4670   39.8090 O   0  0  0  0  0  0  0  0  0  0  0  0
   65.4030   39.5550   39.1400 C   0  0  0  0  0  0  0  0  0  0  0  0
   66.9910   37.3050   41.4390 O   0  0  0  0  0  0  0  0  0  0  0  0
   63.4130   39.2870   40.2920 C   0  0  0  0  0  0  0  0  0  0  0  0
   65.5580   38.6750   40.3850 C   0  0  0  0  0  0  0  0  0  0  0  0
   64.2770   36.7890   41.0130 C   0  0  0  0  0  0  0  0  0  0  0  0
   64.6900   35.6350   41.3540 O   0  0  0  0  0  0  0  0  0  0  0  0
   66.5170   37.4320   40.0980 C   0  0  0  0  0  0  0  0  0  0  0  0
   66.2740   41.2390   37.3470 O   0  0  0  0  0  0  0  0  0  0  0  0
  1  2  1  0
  1  5  1  0
  3 10  2  0
  4  8  1  0
  6  1  1  0
  6  4  1  0
  6  9  1  0
  8  3  1  0
  9 12  1  0
  9  3  1  0
 10 11  2  0
 12  7  1  0
 13  1  2  0
M  END
$$$$

     RDKit          3D

 25 27  0  0  0  0  0  0  0  0999 V2000
   61.8590   33.6420   43.2920 C   0  0  0  0  0  0  0  0  0  0  0  0
   63.7390   33.7460   41.6260 C   0  0  0  0  0  0  0  0  0  0  0  0
   67.3610   39.1760   43.2550 C   0  0  0  0  0  0  0  0  0  0  0  0
   65.2550   34.1010   41.5070 C   0  0  0  0  0  0  0  0  0  0  0  0
   65.0230   43.6660   40.2490 C   0  0  0  0  0  0  0  0  0  0  0  0
   64.7640   36.3300   41.8100 C   0  0  0  0  0  0  0  0  0  0  0  0
   65.8710   33.1480   40.6650 C   0  0  0  0  0  0  0  0  0  0  0  0
   68.5670   40.9920   41.3930 C   0  0  0  0  0  0  0  0  0  0  0  0
   68.7450   42.2940   40.6250 C   0  0  0  0  0  0  0  0  0  0  0  0
   65.0310   31.9930   40.7600 O   0  0  0  0  0  0  0  0  0  0  0  0
   67.3820   42.5440   40.0560 C   0  0  0  0  0  0  0  0  0  0  0  0
   65.2700   42.5180   41.1060 C   0  0  0  0  0  0  0  0  0  0  0  0
   63.8340   32.3220   41.5140 N   0  0  0  0  0  0  0  0  0  0  0  0
   66.6150   42.2620   41.4230 C   0  0  0  0  0  0  0  0  0  0  0  0
   65.3740   44.2060   39.2010 O   0  0  0  0  0  0  0  0  0  0  0  0
   64.1020   45.8920   40.8830 C   0  0  0  0  0  0  0  0  0  0  0  0
   66.4080   39.8580   42.3880 C   0  0  0  0  0  0  0  0  0  0  0  0
   65.5320   35.1690   42.2800 N   0  0  0  0  0  0  0  0  0  0  0  0
   65.4770   38.8190   41.7140 C   0  0  0  0  0  0  0  0  0  0  0  0
   67.1430   40.8950   41.6300 C   0  0  0  0  0  0  0  0  0  0  0  0
   65.8600   37.3480   41.7160 C   0  0  0  0  0  0  0  0  0  0  0  0
   63.1500   34.0630   42.8540 O   0  0  0  0  0  0  0  0  0  0  0  0
   66.9540   35.5530   42.5450 C   0  0  0  0  0  0  0  0  0  0  0  0
   67.1300   36.7720   41.6170 C   0  0  0  0  0  0  0  0  0  0  0  0
   64.2030   44.5350   40.5930 N   0  0  0  0  0  0  0  0  0  0  0  0
  2 22  1  0
  4  7  1  0
  4  2  1  0
  4 18  1  0
  5 25  1  0
  5 12  1  0
  7 10  1  0
  8 20  1  0
  9  8  1  0
 10 13  1  0
 11  9  1  0
 11 14  1  0
 13  2  1  0
 14 12  1  0
 14 20  1  0
 15  5  2  0
 17  3  1  0
 18  6  1  0
 18 23  1  0
 19 17  1  0
 20 17  1  0
 21 19  1  0
 21  6  1  0
 22  1  1  0
 24 21  1  0
 24 23  1  0
 25 16  1  0
M  END
$$$$

     RDKit          3D

  8  8  0  0  0  0  0  0  0  0999 V2000
   66.7130   37.7640   43.4140 O   0  0  0  0  0  0  0  0  0  0  0  0
   70.1320   35.6520   39.2990 C   0  0  0  0  0  0  0  0  0  0  0  0
   69.6230   36.4030   41.5600 O   0  0  0  0  0  0  0  0  0  0  0  0
   67.6430   37.6430   42.3540 C   0  0  0  0  0  0  0  0  0  0  0  0
   68.7650   36.7590   42.6300 C   0  0  0  0  0  0  0  0  0  0  0  0
   67.7400   36.2960   39.8840 C   0  0  0  0  0  0  0  0  0  0  0  0
   68.9100   35.8440   40.3560 N   0  0  0  0  0  0  0  0  0  0  0  0
   66.8790   36.9520   41.2000 C   0  0  0  0  0  0  0  0  0  0  0  0
  2  7  1  0
  3  5  1  0
  4  5  1  0
  4  1  1  0
  6  7  1  0
  6  8  1  0
  7  3  1  0
  8  4  1  0
M  END
$$$$

     RDKit          3D

 25 28  0  0  0  0  0  0  0  0999 V2000
   68.3770   37.3520   39.4870 C   0  0  0  0  0  0  0  0  0  0  0  0
   66.5640   36.2490   41.7890 O   0  0  0  0  0  0  0  0  0  0  0  0
   68.5690   36.0770   37.3930 C   0  0  0  0  0  0  0  0  0  0  0  0
   65.4480   40.4900   42.6510 C   0  0  0  0  0  0  0  0  0  0  0  0
   64.2850   44.1220   42.1880 C   0  0  0  0  0  0  0  0  0  0  0  0
   60.3960   39.4180   43.6910 C   0  0  0  0  0  0  0  0  0  0  0  0
   64.6120   39.3100   42.7440 C   0  0  0  0  0  0  0  0  0  0  0  0
   61.2390   38.3980   44.0810 C   0  0  0  0  0  0  0  0  0  0  0  0
   65.3160   38.2600   41.9370 C   0  0  0  0  0  0  0  0  0  0  0  0
   66.3240   37.4240   41.1650 S   0  0  0  0  0  0  0  0  0  0  0  0
   60.9980   40.6170   43.3920 C   0  0  0  0  0  0  0  0  0  0  0  0
   62.5280   38.4010   43.5650 C   0  0  0  0  0  0  0  0  0  0  0  0
   67.3930   37.9930   40.4130 C   0  0  0  0  0  0  0  0  0  0  0  0
   69.0230   34.8670   36.9060 O   0  0  0  0  0  0  0  0  0  0  0  0
   62.8420   42.1360   42.5760 C   0  0  0  0  0  0  0  0  0  0  0  0
   67.8150   36.1890   38.6810 C   0  0  0  0  0  0  0  0  0  0  0  0
   64.9080   37.5170   40.7890 O   0  0  0  0  0  0  0  0  0  0  0  0
   64.2100   42.6750   42.5920 C   0  0  0  0  0  0  0  0  0  0  0  0
   70.0780   37.8330   36.1280 C   0  0  0  0  0  0  0  0  0  0  0  0
   69.7690   37.0870   37.4880 C   0  0  0  0  0  0  0  0  0  0  0  0
   65.2060   41.7940   42.1430 C   0  0  0  0  0  0  0  0  0  0  0  0
   62.3400   40.7100   43.0700 C   0  0  0  0  0  0  0  0  0  0  0  0
   69.1250   38.1480   38.4070 C   0  0  0  0  0  0  0  0  0  0  0  0
   67.9870   38.8820   37.6040 F   0  0  0  0  0  0  0  0  0  0  0  0
   63.0730   39.5710   43.0270 C   0  0  0  0  0  0  0  0  0  0  0  0
  1 13  1  0
  3 14  1  0
  3 20  1  0
  3 16  1  0
  4  7  1  0
  5 18  1  0
  6  8  1  0
  7 25  2  0
  9  7  1  0
 10  2  1  0
 10  9  1  0
 11  6  2  0
 12  8  2  0
 13 10  1  0
 15 18  2  0
 16  1  1  0
 17 10  1  0
 17  9  1  0
 20 19  1  0
 20 23  1  0
 21 18  1  0
 21  4  2  0
 22 15  1  0
 22 11  1  0
 23 24  1  0
 23  1  1  0
 25 22  1  0
 25 12  1  0
M  END
$$$$

     RDKit          3D

 16 16  0  0  0  0  0  0  0  0999 V2000
   69.6050   31.8550   39.4070 C   0  0  0  0  0  0  0  0  0  0  0  0
   67.2430   34.2440   40.5010 C   0  0  0  0  0  0  0  0  0  0  0  0
   64.1710   39.4330   40.1230 C   0  0  0  0  0  0  0  0  0  0  0  0
   68.7500   30.5550   39.3250 C   0  0  0  0  0  0  0  0  0  0  0  0
   68.4410   34.8820   40.9190 C   0  0  0  0  0  0  0  0  0  0  0  0
   68.8880   32.9430   39.6250 C   0  0  0  0  0  0  0  0  0  0  0  0
   67.1790   37.0160   40.6110 C   0  0  0  0  0  0  0  0  0  0  0  0
   70.8550   31.6210   39.0750 C   0  0  0  0  0  0  0  0  0  0  0  0
   69.6570   34.1630   40.2240 C   0  0  0  0  0  0  0  0  0  0  0  0
   64.9880   38.5110   41.1930 C   0  0  0  0  0  0  0  0  0  0  0  0
   68.8470   30.0960   38.0230 O   0  0  0  0  0  0  0  0  0  0  0  0
   72.0030   31.6840   38.7750 N   0  0  0  0  0  0  0  0  0  0  0  0
   66.7560   36.8130   39.2410 N   0  0  0  0  0  0  0  0  0  0  0  0
   68.5460   36.3830   40.6570 C   0  0  0  0  0  0  0  0  0  0  0  0
   65.6760   37.4370   40.8850 C   0  0  0  0  0  0  0  0  0  0  0  0
   67.6130   32.8000   40.4270 C   0  0  0  0  0  0  0  0  0  0  0  0
  1  8  1  0
  2  5  1  0
  3 10  1  0
  4  1  1  0
  5 14  1  0
  6  1  1  0
  6  9  1  0
  6 16  1  0
  7 13  1  0
  7 14  1  0
  7 15  1  0
  9  5  1  0
 11  4  1  0
 12  8  3  0
 15 10  1  0
 16  2  1  0
M  END
$$$$

     RDKit          3D

  6  5  0  0  0  0  0  0  0  0999 V2000
   68.1640   39.1150   43.9730 C   0  0  0  0  0  0  0  0  0  0  0  0
   70.0890   39.5980   42.5720 O   0  0  0  0  0  0  0  0  0  0  0  0
   68.8390   40.1520   43.0380 C   0  0  0  0  0  0  0  0  0  0  0  0
   68.6670   41.3850   41.1290 O   0  0  0  0  0  0  0  0  0  0  0  0
   67.1460   38.4970   43.6270 O   0  0  0  0  0  0  0  0  0  0  0  0
   67.8930   40.4850   42.0120 C   0  0  0  0  0  0  0  0  0  0  0  0
  3  2  1  0
  3  1  1  0
  4  6  1  0
  5  1  2  0
  6  3  1  0
M  END
$$$$

     RDKit          3D

 14 13  0  0  0  0  0  0  0  0999 V2000
   69.0820   37.0190   37.4220 C   0  0  0  0  0  0  0  0  0  0  0  0
   68.1460   36.9020   39.6160 C   0  0  0  0  0  0  0  0  0  0  0  0
   64.5360   39.6890   42.4550 S   0  0  0  0  0  0  0  0  0  0  0  0
   65.9970   37.8260   40.8700 C   0  0  0  0  0  0  0  0  0  0  0  0
   63.5170   40.8860   42.1730 C   0  0  0  0  0  0  0  0  0  0  0  0
   64.8430   38.8590   40.7800 C   0  0  0  0  0  0  0  0  0  0  0  0
   65.9280   36.7870   41.5710 O   0  0  0  0  0  0  0  0  0  0  0  0
   62.0070   41.0040   42.4520 C   0  0  0  0  0  0  0  0  0  0  0  0
   68.2870   34.7640   38.2690 C   0  0  0  0  0  0  0  0  0  0  0  0
   61.4630   40.8470   43.8770 C   0  0  0  0  0  0  0  0  0  0  0  0
   68.2600   36.1940   38.3510 N   0  0  0  0  0  0  0  0  0  0  0  0
   63.7310   38.5220   43.6190 N   0  0  0  0  0  0  0  0  0  0  0  0
   66.5350   38.2710   38.6210 O   0  0  0  0  0  0  0  0  0  0  0  0
   66.8290   37.6270   39.6510 C   0  0  0  0  0  0  0  0  0  0  0  0
  1 11  1  0
  2 14  1  0
  3 12  1  0
  4  7  2  0
  5  8  1  0
  5  3  1  0
  6  4  1  0
  6  3  1  0
  8 10  1  0
  9 11  1  0
 11  2  1  0
 13 14  2  0
 14  4  1  0
M  END
$$$$

     RDKit          3D

 24 24  0  0  0  0  0  0  0  0999 V2000
   62.9020   45.1310   38.9460 C   0  0  0  0  0  0  0  0  0  0  0  0
   63.6090   44.6700   40.2200 C   0  0  0  0  0  0  0  0  0  0  0  0
   64.6580   46.3480   40.6930 C   0  0  0  0  0  0  0  0  0  0  0  0
   66.4450   34.8060   42.5390 O   0  0  0  0  0  0  0  0  0  0  0  0
   69.4560   33.2980   40.3650 C   0  0  0  0  0  0  0  0  0  0  0  0
   68.3690   35.3060   41.3690 C   0  0  0  0  0  0  0  0  0  0  0  0
   65.7610   40.7670   39.2580 N   0  0  0  0  0  0  0  0  0  0  0  0
   61.5990   44.6260   38.9400 O   0  0  0  0  0  0  0  0  0  0  0  0
   65.1600   39.7140   39.8090 C   0  0  0  0  0  0  0  0  0  0  0  0
   69.5120   34.7520   40.5500 C   0  0  0  0  0  0  0  0  0  0  0  0
   71.3280   31.9740   40.4920 O   0  0  0  0  0  0  0  0  0  0  0  0
   65.1560   41.8600   38.9180 N   0  0  0  0  0  0  0  0  0  0  0  0
   64.9450   45.2050   40.0520 O   0  0  0  0  0  0  0  0  0  0  0  0
   69.0040   35.2120   42.6480 O   0  0  0  0  0  0  0  0  0  0  0  0
   69.1750   33.9390   43.0780 C   0  0  0  0  0  0  0  0  0  0  0  0
   63.9770   43.2460   40.2200 C   0  0  0  0  0  0  0  0  0  0  0  0
   70.2980   33.0900   42.6800 C   0  0  0  0  0  0  0  0  0  0  0  0
   64.6160   42.6700   39.2650 C   0  0  0  0  0  0  0  0  0  0  0  0
   66.6420   36.7470   40.8580 O   0  0  0  0  0  0  0  0  0  0  0  0
   65.8520   38.4890   39.3610 C   0  0  0  0  0  0  0  0  0  0  0  0
   70.5440   32.8250   41.3300 C   0  0  0  0  0  0  0  0  0  0  0  0
   66.1840   37.6140   40.5210 C   0  0  0  0  0  0  0  0  0  0  0  0
   64.2220   39.8740   40.4580 O   0  0  0  0  0  0  0  0  0  0  0  0
   66.9620   35.4270   41.4840 C   0  0  0  0  0  0  0  0  0  0  0  0
  2  1  1  0
  2 16  1  0
  5 10  1  0
  5 21  1  0
  6 24  1  0
  6 14  1  0
  7  9  1  0
  8  1  1  0
  9 23  2  0
 10  6  1  0
 11 21  1  0
 12  7  1  0
 12 18  2  3
 13  2  1  0
 13  3  1  0
 14 15  1  0
 17 15  1  0
 18 16  1  0
 19 24  1  0
 20  9  1  0
 20 22  1  0
 21 17  2  0
 22 19  1  0
 24  4  2  0
M  END
$$$$

     RDKit          3D

 21 22  0  0  0  0  0  0  0  0999 V2000
   63.1600   42.1280   43.6670 C   0  0  0  0  0  0  0  0  0  0  0  0
   69.6070   42.6390   38.6610 C   0  0  0  0  0  0  0  0  0  0  0  0
   64.0720   40.5710   41.3510 C   0  0  0  0  0  0  0  0  0  0  0  0
   68.3850   41.0140   41.3410 O   0  0  0  0  0  0  0  0  0  0  0  0
   68.5300   40.4430   39.8350 P   0  0  0  0  0  0  0  0  0  0  0  0
   69.8460   39.7610   39.7140 O   0  0  0  0  0  0  0  0  0  0  0  0
   72.4040   42.9030   38.8260 C   0  0  0  0  0  0  0  0  0  0  0  0
   70.1820   43.6240   38.0840 C   0  0  0  0  0  0  0  0  0  0  0  0
   68.8820   44.0980   38.2940 C   0  0  0  0  0  0  0  0  0  0  0  0
   65.2350   40.1860   41.1810 C   0  0  0  0  0  0  0  0  0  0  0  0
   67.1550   39.2000   39.4960 C   0  0  0  0  0  0  0  0  0  0  0  0
   64.9560   40.4760   43.4280 C   0  0  0  0  0  0  0  0  0  0  0  0
   63.7090   42.2410   45.0460 C   0  0  0  0  0  0  0  0  0  0  0  0
   67.0950   39.0180   37.9870 C   0  0  0  0  0  0  0  0  0  0  0  0
   63.8350   41.2390   42.6610 C   0  0  0  0  0  0  0  0  0  0  0  0
   67.5330   37.9020   40.0630 O   0  0  0  0  0  0  0  0  0  0  0  0
   65.5630   39.5660   42.4980 N   0  0  0  0  0  0  0  0  0  0  0  0
   65.9870   39.5060   40.1670 C   0  0  0  0  0  0  0  0  0  0  0  0
   71.6640   43.9760   38.3520 C   0  0  0  0  0  0  0  0  0  0  0  0
   64.9170   38.4720   39.6780 C   0  0  0  0  0  0  0  0  0  0  0  0
   68.4100   41.7900   38.8290 N   0  0  0  0  0  0  0  0  0  0  0  0
  1 13  1  0
  2 21  1  0
  3 15  1  0
  5  6  2  0
  5  4  1  0
  8  9  1  0
  8 19  1  0
  8  2  1  0
  9  2  1  0
 10 18  1  0
 10  3  1  0
 10 17  1  0
 11 14  1  0
 11  5  1  0
 11 16  1  0
 11 18  1  0
 15 12  1  0
 15  1  2  3
 17 12  1  0
 18 20  1  0
 19  7  1  0
 21  5  1  0
M  END
$$$$
