
     RDKit          3D

 10 10  0  0  0  0  0  0  0  0999 V2000
   68.6820   44.9800   41.8700 C   0  0  0  0  0  0  0  0  0  0  0  0
   73.4290   44.2520   41.2510 C   0  0  0  0  0  0  0  0  0  0  0  0
   71.9760   46.4610   41.8230 O   0  0  0  0  0  0  0  0  0  0  0  0
   70.7890   44.6170   40.9020 C   0  0  0  0  0  0  0  0  0  0  0  0
   69.7240   45.6460   40.9890 C   0  0  0  0  0  0  0  0  0  0  0  0
   70.3380   43.4370   40.7700 C   0  0  0  0  0  0  0  0  0  0  0  0
   72.2210   45.1240   40.7750 C   0  0  0  0  0  0  0  0  0  0  0  0
   69.0980   42.9740   41.1650 C   0  0  0  0  0  0  0  0  0  0  0  0
   68.1950   43.8860   41.5180 C   0  0  0  0  0  0  0  0  0  0  0  0
   73.1850   42.9400   41.7220 O   0  0  0  0  0  0  0  0  0  0  0  0
  2 10  1  0
  4  7  1  0
  4  5  1  0
  5  1  1  0
  6  4  1  0
  6  8  2  0
  7  2  1  0
  7  3  1  0
  8  9  1  0
  9  1  1  0
M  END
$$$$

     RDKit          3D

 21 24  0  0  0  0  0  0  0  0999 V2000
   66.4560   42.2940   43.9120 C   0  0  0  0  0  0  0  0  0  0  0  0
   68.7320   41.2780   44.0920 N   0  0  0  0  0  0  0  0  0  0  0  0
   70.2970   46.7530   41.2270 C   0  0  0  0  0  0  0  0  0  0  0  0
   71.2510   47.8490   41.6500 C   0  0  0  0  0  0  0  0  0  0  0  0
   64.1950   41.3390   44.1050 C   0  0  0  0  0  0  0  0  0  0  0  0
   64.0400   42.8260   44.5400 C   0  0  0  0  0  0  0  0  0  0  0  0
   69.4210   40.1840   44.2920 C   0  0  0  0  0  0  0  0  0  0  0  0
   71.7620   45.7600   42.5790 C   0  0  0  0  0  0  0  0  0  0  0  0
   66.3070   42.4520   45.4240 C   0  0  0  0  0  0  0  0  0  0  0  0
   70.8060   43.0720   44.1210 O   0  0  0  0  0  0  0  0  0  0  0  0
   69.8960   43.6130   43.3510 C   0  0  0  0  0  0  0  0  0  0  0  0
   70.6960   46.1840   39.8880 C   0  0  0  0  0  0  0  0  0  0  0  0
   63.9040   42.9390   46.0440 C   0  0  0  0  0  0  0  0  0  0  0  0
   65.2260   42.4810   44.4950 N   0  0  0  0  0  0  0  0  0  0  0  0
   67.8160   42.2630   43.3110 C   0  0  0  0  0  0  0  0  0  0  0  0
   70.0450   45.6920   42.1500 O   0  0  0  0  0  0  0  0  0  0  0  0
   65.3510   42.0630   46.5400 C   0  0  0  0  0  0  0  0  0  0  0  0
   67.7500   42.3710   41.7730 C   0  0  0  0  0  0  0  0  0  0  0  0
   72.0490   46.8190   41.9360 N   0  0  0  0  0  0  0  0  0  0  0  0
   70.4210   45.0030   42.8160 C   0  0  0  0  0  0  0  0  0  0  0  0
   68.6500   43.4840   43.4690 N   0  0  0  0  0  0  0  0  0  0  0  0
  1 15  1  0
  1 14  1  0
  1  9  1  0
  2  7  3  0
  3 12  1  0
  3  4  1  0
  3 16  1  0
  4 19  1  0
  6  5  1  0
  6 13  1  0
  8 20  2  0
  9 17  1  0
 11 21  1  0
 11 10  2  0
 13 17  1  0
 14  5  1  0
 14  6  1  0
 14  9  1  0
 15 18  1  0
 15 21  1  0
 15  2  1  0
 16 20  1  0
 19  8  1  0
 20 11  1  0
M  END
$$$$

     RDKit          3D

  9  8  0  0  0  0  0  0  0  0999 V2000
   70.7930   45.0430   42.8620 N   0  0  0  0  0  0  0  0  0  0  0  0
   69.6880   42.1830   43.1410 C   0  0  0  0  0  0  0  0  0  0  0  0
   69.2420   43.1990   42.1550 C   0  0  0  0  0  0  0  0  0  0  0  0
   69.9230   41.1510   43.6720 O   0  0  0  0  0  0  0  0  0  0  0  0
   67.2680   40.9960   41.2040 O   0  0  0  0  0  0  0  0  0  0  0  0
   69.6970   44.5800   42.7040 C   0  0  0  0  0  0  0  0  0  0  0  0
   67.6250   43.1360   42.1480 C   0  0  0  0  0  0  0  0  0  0  0  0
   67.0640   41.7030   42.4100 C   0  0  0  0  0  0  0  0  0  0  0  0
   68.6240   45.4720   42.7320 O   0  0  0  0  0  0  0  0  0  0  0  0
  2  4  1  0
  3  7  1  0
  3  6  1  0
  3  2  1  0
  5  8  1  0
  6  9  2  0
  6  1  1  0
  7  8  1  0
M  END
$$$$

     RDKit          3D

 11 11  0  0  0  0  0  0  0  0999 V2000
   69.6220   43.6380   42.7420 C   0  0  0  0  0  0  0  0  0  0  0  0
   69.7960   39.9820   42.4140 C   0  0  0  0  0  0  0  0  0  0  0  0
   67.6350   44.2180   41.5560 C   0  0  0  0  0  0  0  0  0  0  0  0
   67.6120   43.4120   43.9930 C   0  0  0  0  0  0  0  0  0  0  0  0
   69.0810   41.2130   42.9540 C   0  0  0  0  0  0  0  0  0  0  0  0
   68.1630   43.8080   42.8040 N   0  0  0  0  0  0  0  0  0  0  0  0
   68.0030   44.8640   43.7490 C   0  0  0  0  0  0  0  0  0  0  0  0
   71.1390   40.0000   42.8000 O   0  0  0  0  0  0  0  0  0  0  0  0
   67.6660   41.0070   42.5190 C   0  0  0  0  0  0  0  0  0  0  0  0
   69.7290   42.3230   42.2120 C   0  0  0  0  0  0  0  0  0  0  0  0
   69.2390   38.8050   42.6230 O   0  0  0  0  0  0  0  0  0  0  0  0
  1  6  1  0
  2 11  1  0
  2  8  1  0
  2  5  1  0
  3  6  1  0
  5  9  1  0
  6  7  1  0
  6  4  1  0
  7  4  1  0
 10  1  1  0
 10  5  1  0
M  END
$$$$

     RDKit          3D

 10 10  0  0  0  0  0  0  0  0999 V2000
   70.9680   41.3840   42.1110 C   0  0  0  0  0  0  0  0  0  0  0  0
   70.9150   39.9760   41.6200 C   0  0  0  0  0  0  0  0  0  0  0  0
   69.9660   39.4930   41.0970 O   0  0  0  0  0  0  0  0  0  0  0  0
   69.7270   42.1890   42.3010 C   0  0  0  0  0  0  0  0  0  0  0  0
   70.0260   45.2460   42.4130 C   0  0  0  0  0  0  0  0  0  0  0  0
   70.0230   47.3140   41.5280 O   0  0  0  0  0  0  0  0  0  0  0  0
   70.0290   44.3020   41.3900 O   0  0  0  0  0  0  0  0  0  0  0  0
   71.0290   46.3270   41.6210 C   0  0  0  0  0  0  0  0  0  0  0  0
   72.0880   39.4080   41.6560 O   0  0  0  0  0  0  0  0  0  0  0  0
   70.5000   43.7180   42.5180 C   0  0  0  0  0  0  0  0  0  0  0  0
  1  4  1  0
  2  9  1  0
  2  1  1  0
  3  2  2  0
  5  8  1  0
  5 10  1  0
  6  8  1  0
  7  5  1  0
  7 10  1  0
 10  4  1  0
M  END
$$$$

     RDKit          3D

 12 12  0  0  0  0  0  0  0  0999 V2000
   72.5720   43.1250   41.0050 C   0  0  0  0  0  0  0  0  0  0  0  0
   68.4750   43.7670   42.8570 C   0  0  0  0  0  0  0  0  0  0  0  0
   69.2860   42.3100   40.9500 C   0  0  0  0  0  0  0  0  0  0  0  0
   69.0070   43.8170   41.5040 N   0  0  0  0  0  0  0  0  0  0  0  0
   70.6400   42.1240   41.8980 O   0  0  0  0  0  0  0  0  0  0  0  0
   70.9980   45.5350   40.8780 C   0  0  0  0  0  0  0  0  0  0  0  0
   72.9090   41.7590   41.4760 O   0  0  0  0  0  0  0  0  0  0  0  0
   70.1260   44.4850   41.1420 C   0  0  0  0  0  0  0  0  0  0  0  0
   70.8400   46.1100   42.7550 O   0  0  0  0  0  0  0  0  0  0  0  0
   71.0200   46.8140   41.5490 C   0  0  0  0  0  0  0  0  0  0  0  0
   71.2170   43.3080   41.6230 C   0  0  0  0  0  0  0  0  0  0  0  0
   67.6970   44.3000   41.0770 C   0  0  0  0  0  0  0  0  0  0  0  0
  1  7  1  0
  3  4  1  0
  3  5  1  0
  4  2  1  0
  6 10  1  0
  8  6  1  0
  8  4  1  0
  8 11  1  0
 10  9  1  0
 11  1  1  0
 11  5  1  0
 12  4  1  0
M  END
$$$$

     RDKit          3D

  6  5  0  0  0  0  0  0  0  0999 V2000
   70.6720   46.5800   40.0160 O   0  0  0  0  0  0  0  0  0  0  0  0
   71.3740   46.0160   41.5800 C   0  0  0  0  0  0  0  0  0  0  0  0
   73.3970   45.8360   42.7740 O   0  0  0  0  0  0  0  0  0  0  0  0
   72.8160   46.1770   41.9460 C   0  0  0  0  0  0  0  0  0  0  0  0
   73.2470   47.0300   40.7100 C   0  0  0  0  0  0  0  0  0  0  0  0
   70.9350   45.8330   40.5410 N   0  0  0  0  0  0  0  0  0  0  0  0
  1  6  2  0
  2  4  1  0
  4  3  2  0
  5  4  1  0
  6  2  1  0
M  END
$$$$

     RDKit          3D

  7  6  0  0  0  0  0  0  0  0999 V2000
   68.7250   40.9940   43.0720 C   0  0  0  0  0  0  0  0  0  0  0  0
   69.6630   41.8660   43.1250 C   0  0  0  0  0  0  0  0  0  0  0  0
   69.1640   39.7450   43.0750 O   0  0  0  0  0  0  0  0  0  0  0  0
   71.4590   43.5060   43.7940 C   0  0  0  0  0  0  0  0  0  0  0  0
   69.4540   44.2910   42.6270 C   0  0  0  0  0  0  0  0  0  0  0  0
   69.2650   45.3090   42.2000 O   0  0  0  0  0  0  0  0  0  0  0  0
   70.1870   43.2360   43.0480 C   0  0  0  0  0  0  0  0  0  0  0  0
  1  3  1  0
  1  2  1  0
  5  7  2  0
  6  5  2  0
  7  2  1  0
  7  4  1  0
M  END
$$$$

     RDKit          3D

  9 10  0  0  0  0  0  0  0  0999 V2000
   71.5980   42.9850   40.6710 C   0  0  0  0  0  0  0  0  0  0  0  0
   67.6090   43.6180   43.5530 C   0  0  0  0  0  0  0  0  0  0  0  0
   71.5420   43.8970   40.3770 C   0  0  0  0  0  0  0  0  0  0  0  0
   70.2920   42.2180   41.6360 C   0  0  0  0  0  0  0  0  0  0  0  0
   70.1100   44.3870   40.7300 C   0  0  0  0  0  0  0  0  0  0  0  0
   67.9040   45.3250   41.2530 C   0  0  0  0  0  0  0  0  0  0  0  0
   69.8580   43.6470   41.9580 C   0  0  0  0  0  0  0  0  0  0  0  0
   68.7240   43.3440   42.8320 O   0  0  0  0  0  0  0  0  0  0  0  0
   68.7480   44.2300   41.3600 C   0  0  0  0  0  0  0  0  0  0  0  0
  1  4  1  0
  3  1  1  0
  4  7  1  0
  5  3  1  0
  5  9  1  0
  5  7  1  0
  7  8  1  0
  8  2  1  0
  9  6  1  0
  9  7  1  0
M  END
$$$$

     RDKit          3D

 21 22  0  0  0  0  0  0  0  0999 V2000
   67.5980   43.2940   43.3380 C   0  0  0  0  0  0  0  0  0  0  0  0
   71.2460   42.9040   41.3880 C   0  0  0  0  0  0  0  0  0  0  0  0
   68.6230   40.3800   44.8430 F   0  0  0  0  0  0  0  0  0  0  0  0
   71.2200   47.3480   40.2950 C   0  0  0  0  0  0  0  0  0  0  0  0
   72.7190   48.8020   41.5180 O   0  0  0  0  0  0  0  0  0  0  0  0
   68.0520   42.5550   44.5830 C   0  0  0  0  0  0  0  0  0  0  0  0
   68.9150   42.1220   41.5130 C   0  0  0  0  0  0  0  0  0  0  0  0
   64.6340   41.7710   46.2910 N   0  0  0  0  0  0  0  0  0  0  0  0
   72.6070   42.3670   40.5780 O   0  0  0  0  0  0  0  0  0  0  0  0
   67.6920   41.2230   44.6920 C   0  0  0  0  0  0  0  0  0  0  0  0
   71.8090   49.5580   39.3100 O   0  0  0  0  0  0  0  0  0  0  0  0
   73.1320   48.8580   39.0540 O   0  0  0  0  0  0  0  0  0  0  0  0
   70.8460   46.4840   40.2250 C   0  0  0  0  0  0  0  0  0  0  0  0
   70.5910   44.2360   41.2750 C   0  0  0  0  0  0  0  0  0  0  0  0
   65.6060   41.5780   45.6980 C   0  0  0  0  0  0  0  0  0  0  0  0
   66.3030   41.0980   44.7330 N   0  0  0  0  0  0  0  0  0  0  0  0
   70.3060   41.7270   41.0660 C   0  0  0  0  0  0  0  0  0  0  0  0
   68.6910   43.1190   42.2750 N   0  0  0  0  0  0  0  0  0  0  0  0
   72.3870   48.6430   40.2940 S   0  0  0  0  0  0  0  0  0  0  0  0
   69.5010   44.3420   42.2610 C   0  0  0  0  0  0  0  0  0  0  0  0
   71.3460   45.2830   40.6930 C   0  0  0  0  0  0  0  0  0  0  0  0
  1  6  1  0
  2  9  1  0
  6 10  1  0
  7 18  1  0
 10 16  1  0
 10  3  1  0
 11 19  1  0
 12 11  1  0
 12 19  1  0
 13  4  1  0
 13 21  1  0
 14 21  1  0
 14  2  1  0
 14 20  1  0
 15  8  2  0
 16 15  1  0
 17  2  1  0
 17  7  1  0
 18  1  1  0
 19  4  1  0
 19  5  1  0
 20 18  1  0
M  END
$$$$

     RDKit          3D

  9  8  0  0  0  0  0  0  0  0999 V2000
   72.5600   43.7340   41.3370 C   0  0  0  0  0  0  0  0  0  0  0  0
   72.8060   42.4680   40.8900 C   0  0  0  0  0  0  0  0  0  0  0  0
   70.9460   41.0990   41.5580 O   0  0  0  0  0  0  0  0  0  0  0  0
   71.4960   45.4780   40.2140 C   0  0  0  0  0  0  0  0  0  0  0  0
   71.1450   44.2180   40.9240 C   0  0  0  0  0  0  0  0  0  0  0  0
   71.4680   41.6370   40.7350 C   0  0  0  0  0  0  0  0  0  0  0  0
   72.0290   40.4060   39.8590 O   0  0  0  0  0  0  0  0  0  0  0  0
   72.4980   46.0630   40.6750 C   0  0  0  0  0  0  0  0  0  0  0  0
   74.0290   41.7890   41.2210 N   0  0  0  0  0  0  0  0  0  0  0  0
  2  9  1  0
  2  1  1  0
  4  8  1  0
  4  5  1  0
  5  1  1  0
  6  2  1  0
  6  3  1  0
  7  6  1  0
M  END
$$$$

     RDKit          3D

 14 14  0  0  0  0  0  0  0  0999 V2000
   72.3600   41.2090   39.9420 O   0  0  0  0  0  0  0  0  0  0  0  0
   70.4950   41.1970   40.6230 O   0  0  0  0  0  0  0  0  0  0  0  0
   69.0140   41.4360   44.5550 O   0  0  0  0  0  0  0  0  0  0  0  0
   67.8780   43.5780   42.1920 C   0  0  0  0  0  0  0  0  0  0  0  0
   68.3940   42.4230   42.7180 C   0  0  0  0  0  0  0  0  0  0  0  0
   71.3600   41.8690   40.1380 C   0  0  0  0  0  0  0  0  0  0  0  0
   70.3400   42.8320   42.8950 O   0  0  0  0  0  0  0  0  0  0  0  0
   67.8990   45.1520   42.7650 O   0  0  0  0  0  0  0  0  0  0  0  0
   70.0830   44.1460   41.1250 N   0  0  0  0  0  0  0  0  0  0  0  0
   70.9720   43.0730   39.2450 C   0  0  0  0  0  0  0  0  0  0  0  0
   67.1830   42.0900   44.7040 O   0  0  0  0  0  0  0  0  0  0  0  0
   68.1000   42.0850   43.9410 C   0  0  0  0  0  0  0  0  0  0  0  0
   69.4590   43.2640   42.1130 C   0  0  0  0  0  0  0  0  0  0  0  0
   71.1400   44.2240   40.2360 C   0  0  0  0  0  0  0  0  0  0  0  0
  1  6  2  0
  4  5  1  0
  4  8  1  0
  5 12  1  0
  6  2  1  0
  9 13  1  0
 10  6  1  0
 10 14  1  0
 12  3  2  0
 12 11  1  0
 13  4  1  0
 13  5  1  0
 13  7  1  0
 14  9  1  0
M  END
$$$$

     RDKit          3D

 20 20  0  0  0  0  0  0  0  0999 V2000
   65.4600   53.4220   39.8830 C   0  0  0  0  0  0  0  0  0  0  0  0
   70.3510   40.0080   44.8820 C   0  0  0  0  0  0  0  0  0  0  0  0
   67.9990   43.5980   42.3450 C   0  0  0  0  0  0  0  0  0  0  0  0
   67.3330   49.6640   40.5480 C   0  0  0  0  0  0  0  0  0  0  0  0
   70.1690   37.4870   44.4450 O   0  0  0  0  0  0  0  0  0  0  0  0
   66.6570   50.6380   40.6690 C   0  0  0  0  0  0  0  0  0  0  0  0
   70.0660   41.1610   43.8850 C   0  0  0  0  0  0  0  0  0  0  0  0
   64.5970   53.1150   38.6020 C   0  0  0  0  0  0  0  0  0  0  0  0
   68.0310   38.4270   45.2610 O   0  0  0  0  0  0  0  0  0  0  0  0
   64.9470   51.9160   39.3890 C   0  0  0  0  0  0  0  0  0  0  0  0
   69.1900   38.7330   44.6370 P   0  0  0  0  0  0  0  0  0  0  0  0
   64.7580   55.0810   40.1330 O   0  0  0  0  0  0  0  0  0  0  0  0
   67.4900   44.5230   41.2970 C   0  0  0  0  0  0  0  0  0  0  0  0
   67.6260   48.4050   41.3340 C   0  0  0  0  0  0  0  0  0  0  0  0
   68.6930   43.1370   43.0890 C   0  0  0  0  0  0  0  0  0  0  0  0
   65.8170   50.9420   39.3290 C   0  0  0  0  0  0  0  0  0  0  0  0
   68.5180   38.8750   43.7020 O   0  0  0  0  0  0  0  0  0  0  0  0
   66.9860   47.0140   40.8600 C   0  0  0  0  0  0  0  0  0  0  0  0
   69.0330   41.6020   43.3060 C   0  0  0  0  0  0  0  0  0  0  0  0
   67.6440   45.9610   41.8070 C   0  0  0  0  0  0  0  0  0  0  0  0
  1 12  1  0
  3 15  1  0
  4  6  1  0
  4 14  1  0
  5 11  1  0
  7  2  1  0
  8 10  1  0
  8  1  1  0
 10 16  1  0
 10  1  1  0
 11  2  1  0
 11  9  1  0
 13 20  1  0
 13  3  1  0
 15 19  1  0
 16  6  1  0
 17 11  2  0
 18 14  1  0
 18 20  1  0
 19  7  1  0
M  END
$$$$

     RDKit          3D

 14 14  0  0  0  0  0  0  0  0999 V2000
   70.6860   48.4190   41.7150 O   0  0  0  0  0  0  0  0  0  0  0  0
   70.6460   47.7460   40.2570 C   0  0  0  0  0  0  0  0  0  0  0  0
   68.5620   44.1650   41.9320 O   0  0  0  0  0  0  0  0  0  0  0  0
   70.1510   46.2980   40.3940 C   0  0  0  0  0  0  0  0  0  0  0  0
   71.1560   41.6310   42.3100 C   0  0  0  0  0  0  0  0  0  0  0  0
   69.7690   44.3370   42.2240 P   0  0  0  0  0  0  0  0  0  0  0  0
   70.4110   44.1630   43.7410 O   0  0  0  0  0  0  0  0  0  0  0  0
   70.1190   41.0510   42.6980 O   0  0  0  0  0  0  0  0  0  0  0  0
   70.1390   40.4210   40.4480 O   0  0  0  0  0  0  0  0  0  0  0  0
   71.7660   48.3050   40.8210 C   0  0  0  0  0  0  0  0  0  0  0  0
   70.7450   42.9990   42.0670 O   0  0  0  0  0  0  0  0  0  0  0  0
   70.4590   45.6440   41.6460 O   0  0  0  0  0  0  0  0  0  0  0  0
   69.5810   48.7420   40.1550 O   0  0  0  0  0  0  0  0  0  0  0  0
   71.2300   41.0360   40.7100 C   0  0  0  0  0  0  0  0  0  0  0  0
  2 13  1  0
  2  4  1  0
  2 10  1  0
  2  1  1  0
  4 12  1  0
  5  8  1  0
  6  3  2  0
  6  7  1  0
  9 14  1  0
 10  1  1  0
 11  6  1  0
 11  5  1  0
 12  6  1  0
 14  5  1  0
M  END
$$$$

     RDKit          3D

 10  9  0  0  0  0  0  0  0  0999 V2000
   68.1010   40.3550   43.1780 F   0  0  0  0  0  0  0  0  0  0  0  0
   69.6850   44.7780   42.9490 O   0  0  0  0  0  0  0  0  0  0  0  0
   67.9940   42.7220   44.1430 F   0  0  0  0  0  0  0  0  0  0  0  0
   68.4710   41.1160   40.9500 C   0  0  0  0  0  0  0  0  0  0  0  0
   68.5340   42.7210   42.8640 C   0  0  0  0  0  0  0  0  0  0  0  0
   69.7880   43.4280   42.9590 C   0  0  0  0  0  0  0  0  0  0  0  0
   70.9250   42.9770   42.0840 C   0  0  0  0  0  0  0  0  0  0  0  0
   68.6240   41.3110   42.4320 C   0  0  0  0  0  0  0  0  0  0  0  0
   68.6860   39.7860   40.7640 O   0  0  0  0  0  0  0  0  0  0  0  0
   69.0530   41.7160   40.0770 O   0  0  0  0  0  0  0  0  0  0  0  0
  2  6  1  0
  4  8  1  0
  5  6  1  0
  5  3  1  0
  6  7  1  0
  8  5  1  0
  8  1  1  0
  9  4  1  0
 10  4  1  0
M  END
$$$$

     RDKit          3D

  9  8  0  0  0  0  0  0  0  0999 V2000
   72.1100   42.7580   43.4150 C   0  0  0  0  0  0  0  0  0  0  0  0
   70.5810   46.5160   40.9890 S   0  0  0  0  0  0  0  0  0  0  0  0
   71.2800   47.8290   41.2820 C   0  0  0  0  0  0  0  0  0  0  0  0
   72.2940   42.9890   44.6160 O   0  0  0  0  0  0  0  0  0  0  0  0
   73.2760   42.6680   42.5330 F   0  0  0  0  0  0  0  0  0  0  0  0
   71.0810   42.7870   42.8230 N   0  0  0  0  0  0  0  0  0  0  0  0
   69.8430   43.0830   42.5820 C   0  0  0  0  0  0  0  0  0  0  0  0
   69.5040   44.4770   42.1710 C   0  0  0  0  0  0  0  0  0  0  0  0
   70.7470   45.3890   42.2030 C   0  0  0  0  0  0  0  0  0  0  0  0
  1  4  2  0
  2  3  1  0
  2  9  1  0
  5  1  1  0
  6  1  1  0
  7  6  1  0
  8  9  1  0
  8  7  1  0
M  END
$$$$

     RDKit          3D

 16 15  0  0  0  0  0  0  0  0999 V2000
   66.6360   52.3480   40.0850 C   0  0  0  0  0  0  0  0  0  0  0  0
   67.6020   42.3140   43.9030 O   0  0  0  0  0  0  0  0  0  0  0  0
   69.5930   40.9550   43.5930 C   0  0  0  0  0  0  0  0  0  0  0  0
   65.6840   51.4090   37.7350 O   0  0  0  0  0  0  0  0  0  0  0  0
   68.8020   45.3800   41.6380 C   0  0  0  0  0  0  0  0  0  0  0  0
   67.1000   51.3070   38.8130 S   0  0  0  0  0  0  0  0  0  0  0  0
   66.1960   47.7490   40.6020 C   0  0  0  0  0  0  0  0  0  0  0  0
   65.3930   48.8170   40.0670 C   0  0  0  0  0  0  0  0  0  0  0  0
   66.5340   49.7440   39.3930 N   0  0  0  0  0  0  0  0  0  0  0  0
   67.1440   47.1480   40.9690 C   0  0  0  0  0  0  0  0  0  0  0  0
   67.9230   51.6930   37.8300 O   0  0  0  0  0  0  0  0  0  0  0  0
   69.8300   39.8410   44.3210 C   0  0  0  0  0  0  0  0  0  0  0  0
   68.4690   43.9670   42.0880 C   0  0  0  0  0  0  0  0  0  0  0  0
   69.2190   43.5910   43.3690 C   0  0  0  0  0  0  0  0  0  0  0  0
   68.9610   42.2370   44.0290 C   0  0  0  0  0  0  0  0  0  0  0  0
   68.2140   46.6270   41.7500 C   0  0  0  0  0  0  0  0  0  0  0  0
  3 15  1  0
  3 12  2  0
  4  6  2  0
  5 16  1  0
  5 13  1  0
  6  9  1  0
  6  1  1  0
  7 10  3  0
  8  7  1  0
  9  8  1  0
 10 16  1  0
 11  6  2  0
 13 14  1  0
 14 15  1  0
 15  2  1  0
M  END
$$$$

     RDKit          3D

 20 21  0  0  0  0  0  0  0  0999 V2000
   67.7640   43.1940   43.5070 C   0  0  0  0  0  0  0  0  0  0  0  0
   66.2520   41.5500   44.5710 O   0  0  0  0  0  0  0  0  0  0  0  0
   74.7040   46.2240   39.2690 C   0  0  0  0  0  0  0  0  0  0  0  0
   67.5850   42.0200   44.4790 C   0  0  0  0  0  0  0  0  0  0  0  0
   73.2640   43.6380   43.1400 C   0  0  0  0  0  0  0  0  0  0  0  0
   70.5300   43.3720   40.7500 C   0  0  0  0  0  0  0  0  0  0  0  0
   69.0120   42.7550   42.8010 C   0  0  0  0  0  0  0  0  0  0  0  0
   71.9740   43.4370   42.6550 C   0  0  0  0  0  0  0  0  0  0  0  0
   74.2840   42.9880   42.3150 C   0  0  0  0  0  0  0  0  0  0  0  0
   70.8190   43.6400   43.5350 C   0  0  0  0  0  0  0  0  0  0  0  0
   71.8150   43.4400   41.2270 C   0  0  0  0  0  0  0  0  0  0  0  0
   66.5500   43.1560   41.2200 O   0  0  0  0  0  0  0  0  0  0  0  0
   74.6000   44.7200   38.7420 C   0  0  0  0  0  0  0  0  0  0  0  0
   74.3470   43.4940   40.8850 C   0  0  0  0  0  0  0  0  0  0  0  0
   72.9880   43.5840   40.2900 C   0  0  0  0  0  0  0  0  0  0  0  0
   70.0800   42.2050   43.5520 C   0  0  0  0  0  0  0  0  0  0  0  0
   69.2430   43.4180   41.4540 C   0  0  0  0  0  0  0  0  0  0  0  0
   73.1160   44.3690   38.9680 C   0  0  0  0  0  0  0  0  0  0  0  0
   66.5480   43.2670   42.5660 C   0  0  0  0  0  0  0  0  0  0  0  0
   68.0680   42.2130   45.7960 O   0  0  0  0  0  0  0  0  0  0  0  0
  1 19  1  0
  1  4  1  0
  4  2  1  0
  4 20  1  0
  6 11  2  0
  6 17  1  0
  7  1  1  0
  7 16  1  0
  8  5  1  0
  8 10  1  0
  9  5  1  0
 10 16  1  0
 11  8  1  0
 12 19  1  0
 13 18  1  0
 13  3  1  0
 14  9  1  0
 15 18  1  0
 15 14  1  0
 15 11  1  0
 17  7  2  0
M  END
$$$$

     RDKit          3D

 13 13  0  0  0  0  0  0  0  0999 V2000
   69.5250   42.1650   43.3800 C   0  0  0  0  0  0  0  0  0  0  0  0
   70.2800   47.2580   41.7190 O   0  0  0  0  0  0  0  0  0  0  0  0
   71.2320   43.9380   40.7660 C   0  0  0  0  0  0  0  0  0  0  0  0
   69.9020   42.0680   41.9460 C   0  0  0  0  0  0  0  0  0  0  0  0
   68.5240   43.3160   43.3140 C   0  0  0  0  0  0  0  0  0  0  0  0
   69.3720   41.2130   44.2140 O   0  0  0  0  0  0  0  0  0  0  0  0
   70.0130   40.7290   41.7940 O   0  0  0  0  0  0  0  0  0  0  0  0
   69.9170   43.4120   41.4050 C   0  0  0  0  0  0  0  0  0  0  0  0
   68.9920   44.2590   42.3020 O   0  0  0  0  0  0  0  0  0  0  0  0
   71.7070   42.6100   40.0380 O   0  0  0  0  0  0  0  0  0  0  0  0
   70.9960   46.7640   40.7710 C   0  0  0  0  0  0  0  0  0  0  0  0
   70.6910   45.2610   40.2780 C   0  0  0  0  0  0  0  0  0  0  0  0
   71.5560   47.5680   39.5460 C   0  0  0  0  0  0  0  0  0  0  0  0
  1  6  2  0
  3 10  1  0
  4  7  1  0
  4  1  1  0
  5  1  1  0
  8  3  1  0
  8  4  1  0
  8  9  1  0
  9  5  1  0
 11 13  1  0
 11  2  1  0
 12  3  1  0
 12 11  1  0
M  END
$$$$

     RDKit          3D

 19 20  0  0  0  0  0  0  0  0999 V2000
   71.3170   44.4970   41.5270 O   0  0  0  0  0  0  0  0  0  0  0  0
   68.1630   41.9580   45.0670 O   0  0  0  0  0  0  0  0  0  0  0  0
   73.3180   47.2850   40.5200 N   0  0  0  0  0  0  0  0  0  0  0  0
   68.2500   41.0720   42.6940 C   0  0  0  0  0  0  0  0  0  0  0  0
   73.5560   43.6710   41.0580 S   0  0  0  0  0  0  0  0  0  0  0  0
   69.8650   42.3480   41.5780 C   0  0  0  0  0  0  0  0  0  0  0  0
   68.8600   43.5420   41.8350 N   0  0  0  0  0  0  0  0  0  0  0  0
   71.3590   42.0680   41.0480 C   0  0  0  0  0  0  0  0  0  0  0  0
   74.4000   45.2150   41.2700 C   0  0  0  0  0  0  0  0  0  0  0  0
   67.7560   40.9320   44.1070 C   0  0  0  0  0  0  0  0  0  0  0  0
   71.9880   41.0480   41.5960 O   0  0  0  0  0  0  0  0  0  0  0  0
   74.7930   47.5570   40.5850 C   0  0  0  0  0  0  0  0  0  0  0  0
   69.7480   41.4020   42.7870 C   0  0  0  0  0  0  0  0  0  0  0  0
   66.4850   40.5680   44.2760 O   0  0  0  0  0  0  0  0  0  0  0  0
   72.0490   43.3520   41.2580 C   0  0  0  0  0  0  0  0  0  0  0  0
   71.9310   45.6820   41.7040 C   0  0  0  0  0  0  0  0  0  0  0  0
   75.6450   44.4480   41.6440 O   0  0  0  0  0  0  0  0  0  0  0  0
   73.0760   46.2430   41.2950 C   0  0  0  0  0  0  0  0  0  0  0  0
   75.2710   46.3480   40.6230 C   0  0  0  0  0  0  0  0  0  0  0  0
  1 16  1  0
  3 12  1  0
  3 18  1  0
  4 13  1  0
  4 10  1  0
  5 15  1  0
  5  9  1  0
  6  7  1  0
  6 13  1  0
  8  6  1  0
  8 11  1  0
  9 18  1  0
  9 17  1  0
 10 14  2  0
 10  2  1  0
 12 19  1  0
 15  8  1  0
 15  1  1  0
 18 16  1  0
 19  9  1  0
M  END
$$$$
